version 3
run General-0-20250518-23:03:36-18996
attr configname General
attr datetime 20250518-23:03:36
attr datetimef 20250518-230336
attr experiment General
attr inifile omnetpp.ini
attr iterationvars ""
attr iterationvarsd ""
attr iterationvarsf ""
attr measurement ""
attr network ned.TrackingSimulation
attr processid 18996
attr repetition 0
attr replication #0
attr resultdir results
attr runnumber 0
attr seedset 0
config image-path ../inet-master/inet-master/images
config network ned.TrackingSimulation
config sim-time-limit 100s
config *.mobility "\"MovingMobilityBase\""
config eventlog-file results/simulation-events.elog
config cmdenv-output-file results/simulation-results.csv
config *.server.app[0].logFile "\"results/tracking_log.csv\""
config **.udpApp[0].typename SensorTrackingApp
config *.visualizerType "\"IntegratedVisualizer\""
config *.radioMedium.backgroundNoise false
config *.radioMedium.pathLossAlpha 2.1
config *.radioMedium.carrierFrequency "2.4 GHz"
config *.radioMedium.transmissionPower 10mW
config *.wlan[*].typename Ieee80211WlanInterface
config *.wlan[*].mac.queueLength 10
config *.configurator.addStaticRoutes true
config *.configurator.routingFile "\"\""
config *.sensor[0].numApps 1
config *.sensor[0].app[0].typename SensorTrackingApp
config *.sensor[0].app[0].destAddress "\"server\""
config *.sensor[0].app[0].destPort 10000
config *.sensor[0].app[0].startTime 1s
config *.sensor[0].app[0].sendInterval 2s
config *.sensor[1..4].numApps 1
config *.sensor[1..4].app[0].typename SensorTrackingApp
config *.sensor[1..4].app[0].destAddress "\"server\""
config *.sensor[1..4].app[0].destPort 10000
config *.sensor[1..4].app[0].startTime 1s
config *.sensor[1..4].app[0].sendInterval "uniform(2s, 5s)"
config *.server.numApps 1
config *.server.app[0].typename TrackingLoggerApp
config *.server.app[0].localPort 10000
config *.server.app[0].interfaceTable "\"interfaceTable\""
config *.monitoringCenter.numApps 1
config *.monitoringCenter.app[0].typename MonitoringCenterApp
config *.monitoringCenter.app[0].localPort 20000
config *.client.mobility.typename StationaryMobility
config *.client.mobility.x 150m
config *.client.mobility.y 150m
config *.server.mobility.typename StationaryMobility
config *.server.mobility.x 95m
config *.server.mobility.y 269m
config *.monitoringCenter.mobility.typename StationaryMobility
config *.monitoringCenter.mobility.x 323m
config *.monitoringCenter.mobility.y 278m
config *.sensor[*].mobility.typename RandomWaypointMobility
config *.sensor[*].mobility.speed "uniform(1mps, 5mps)"
config *.sensor[*].mobility.waitTime "uniform(1s, 3s)"
config *.sensor[*].mobility.constraintAreaMinX 0m
config *.sensor[*].mobility.constraintAreaMinY 0m
config *.sensor[*].mobility.constraintAreaMaxX 800m
config *.sensor[*].mobility.constraintAreaMaxY 600m
config *.sensor[*].mobility.constraintAreaMinZ 0m
config *.sensor[*].mobility.constraintAreaMaxZ 0m
config *.target[*].mobility.typename StationaryMobility
config *.target[*].mobility.x "400m + index * 10m"
config *.target[*].mobility.y 50m
config *.playUnderWater false
config *.updateDisplay true

vector 0 TrackingSimulation.client.lo[0].lo rcvdPkFromHl:vector(packetBytes) ETV
attr interpolationmode none
attr recordingmode vector(packetBytes)
attr source packetReceivedFromUpper
attr title "packets received from higher layer, packetBytes"
vector 1 TrackingSimulation.client.lo[0].lo passedUpPk:vector(packetBytes) ETV
attr interpolationmode none
attr recordingmode vector(packetBytes)
attr source packetSentToUpper
attr title "packets passed to higher layer, packetBytes"
vector 2 TrackingSimulation.client.lo[0] packetDropInterfaceDown:vector(packetBytes) ETV
attr interpolationmode none
attr recordingmode vector(packetBytes)
attr source packetDropReasonIsInterfaceDown(packetDropped)
attr title "packet drops: interface down, packetBytes"
vector 3 TrackingSimulation.client.lo[0] packetDropNoCarrier:vector(packetBytes) ETV
attr interpolationmode none
attr recordingmode vector(packetBytes)
attr source packetDropReasonIsNoCarrier(packetDropped)
attr title "packet drops: no carrier, packetBytes"
vector 4 TrackingSimulation.client.wlan[0].agent sentRequest:vector ETV
attr recordingmode vector
attr title "sent requests"
vector 5 TrackingSimulation.client.wlan[0].agent acceptConfirm:vector ETV
attr recordingmode vector
attr title "accepted confirms"
vector 6 TrackingSimulation.client.wlan[0].agent dropConfirm:vector ETV
attr recordingmode vector
attr title "dropped confirms"
vector 7 TrackingSimulation.client.wlan[0].mac.dcf.channelAccess.pendingQueue queueLength:vector ETV
attr autoWarmupFilter false
attr interpolationmode sample-hold
attr recordingmode vector
attr source "warmup(atomic(constant0(packetPushEnded) + count(packetPushStarted) - count(packetPulled) - count(packetRemoved) - count(packetDropped)))"
attr title "queue length"
attr unit pk
vector 8 TrackingSimulation.client.wlan[0].mac.dcf.channelAccess.pendingQueue queueBitLength:vector ETV
attr autoWarmupFilter false
attr interpolationmode sample-hold
attr recordingmode vector
attr source "warmup(atomic(constant0(packetPushEnded) + sum(packetLength(packetPushStarted)) - sum(packetLength(packetPulled)) - sum(packetLength(packetRemoved)) - sum(packetLength(packetDropped))))"
attr title "queue bit length"
attr unit b
vector 9 TrackingSimulation.client.wlan[0].mac.dcf.channelAccess.pendingQueue queueingTime:vector ETV
attr interpolationmode none
attr recordingmode vector
attr source queueingTime(packetPulled)
attr title "queueing times"
attr unit s
vector 10 TrackingSimulation.client.wlan[0].mac.dcf.channelAccess.pendingQueue incomingPacketLengths:vector ETV
attr interpolationmode none
attr recordingmode vector
attr source packetLength(packetPushStarted)
attr title "incoming packet lengths"
attr unit b
vector 11 TrackingSimulation.client.wlan[0].mac.dcf.channelAccess.pendingQueue incomingDataRate:vector ETV
attr interpolationmode linear
attr recordingmode vector
attr source throughput(packetPushStarted)
attr title "incoming datarate"
attr unit bps
vector 12 TrackingSimulation.client.wlan[0].mac.dcf.channelAccess.pendingQueue outgoingPacketLengths:vector ETV
attr interpolationmode none
attr recordingmode vector
attr source packetLength(packetPulled)
attr title "outgoing packet lengths"
attr unit b
vector 13 TrackingSimulation.client.wlan[0].mac.dcf.channelAccess.pendingQueue outgoingDataRate:vector ETV
attr interpolationmode linear
attr recordingmode vector
attr source throughput(packetPulled)
attr title "outgoing datarate"
attr unit bps
vector 14 TrackingSimulation.client.wlan[0].mac.dcf.channelAccess.pendingQueue droppedPacketLengthsQueueOverflow:vector ETV
attr interpolationmode none
attr recordingmode vector
attr source packetLength(packetDropReasonIsQueueOverflow(packetDropped))
attr title "dropped packet lengths: queue overflow"
attr unit b
vector 15 TrackingSimulation.client.wlan[0].mac.dcf.channelAccess.pendingQueue flowQueueingTime:vector ETV
attr interpolationmode none
attr recordingmode vector
attr source queueingTime(demuxFlow(packetPulled))
attr title "flow queueing times"
attr unit s
vector 16 TrackingSimulation.client.wlan[0].mac.dcf.channelAccess.pendingQueue flowIncomingDataRate:vector ETV
attr interpolationmode linear
attr recordingmode vector
attr source throughput(flowPacketLength(demuxFlow(packetPushStarted)))
attr title "flow specific incoming data rate"
attr unit bps
vector 17 TrackingSimulation.client.wlan[0].mac.dcf.channelAccess.pendingQueue flowOutgoingDataRate:vector ETV
attr interpolationmode linear
attr recordingmode vector
attr source throughput(flowPacketLength(demuxFlow(packetPulled)))
attr title "flow specific outgoing data rate"
attr unit bps
vector 18 TrackingSimulation.client.wlan[0].mac.dcf.channelAccess.inProgressFrames queueingTime:vector ETV
attr interpolationmode none
attr recordingmode vector
attr source queueingTime(packetDequeued)
attr title "queueing times"
vector 19 TrackingSimulation.client.wlan[0].mac.dcf.channelAccess.inProgressFrames queueLength:vector ETV
attr autoWarmupFilter false
attr interpolationmode sample-hold
attr recordingmode vector
attr source "warmup(count(packetEnqueued) - count(packetDequeued))"
attr title "queue length"
vector 20 TrackingSimulation.client.wlan[0].mac.dcf.channelAccess.contention backoffPeriodGenerated:vector ETV
attr interpolationmode none
attr recordingmode vector
attr title "backoff periods"
vector 21 TrackingSimulation.client.wlan[0].mac.dcf.channelAccess.contention backoffActive:vector ETV
attr autoWarmupFilter false
attr interpolationmode sample-hold
attr recordingmode vector
attr source warmup(count(backoffStarted)-count(backoffStopped))
attr title "backoff active"
vector 22 TrackingSimulation.client.wlan[0].mac.dcf.channelAccess.contention stateChanged:vector ETV
attr enum IDLE,DEFER,IFS_AND_BACKOFF
attr interpolationmode none
attr recordingmode vector
attr title "contention state changed"
attr type enum
vector 23 TrackingSimulation.client.wlan[0].mac.dcf.recipientMacDataService packetDropDuplicateDetected:vector(packetBytes) ETV
attr interpolationmode none
attr recordingmode vector(packetBytes)
attr source packetDropReasonIsDuplicateDetected(packetDropped)
attr title "packet drops: duplicate detected, packetBytes"
vector 24 TrackingSimulation.client.wlan[0].mac.dcf.recoveryProcedure contentionWindowChanged:vector ETV
attr interpolationmode sample-hold
attr recordingmode vector
attr title "contention window"
vector 25 TrackingSimulation.client.wlan[0].mac.dcf packetSentToPeer:vector(packetBytes) ETV
attr interpolationmode none
attr recordingmode vector(packetBytes)
attr title "packets sent, packetBytes"
vector 26 TrackingSimulation.client.wlan[0].mac.dcf packetSentToPeerUnicast:vector(packetBytes) ETV
attr interpolationmode none
attr recordingmode vector(packetBytes)
attr source ieee80211Unicast(packetSentToPeer)
attr title "packets sent: unicast, packetBytes"
vector 27 TrackingSimulation.client.wlan[0].mac.dcf packetSentToPeerMulticast:vector(packetBytes) ETV
attr interpolationmode none
attr recordingmode vector(packetBytes)
attr source ieee80211Multicast(packetSentToPeer)
attr title "packets sent: multicast, packetBytes"
vector 28 TrackingSimulation.client.wlan[0].mac.dcf packetSentToPeerBroadcast:vector(packetBytes) ETV
attr interpolationmode none
attr recordingmode vector(packetBytes)
attr source ieee80211Broadcast(packetSentToPeer)
attr title "packets sent: broadcast , packetBytes"
vector 29 TrackingSimulation.client.wlan[0].mac.dcf packetSentToPeerWithRetry:vector(packetBytes) ETV
attr interpolationmode none
attr recordingmode vector(packetBytes)
attr source ieee80211Retry(packetSentToPeer)
attr title "packets sent: with retry, packetBytes"
vector 30 TrackingSimulation.client.wlan[0].mac.dcf packetSentToPeerWithoutRetry:vector(packetBytes) ETV
attr interpolationmode none
attr recordingmode vector(packetBytes)
attr source ieee80211NotRetry(packetSentToPeer)
attr title "packets sent: without retry, packetBytes"
vector 31 TrackingSimulation.client.wlan[0].mac.dcf packetReceivedFromPeer:vector(packetBytes) ETV
attr interpolationmode none
attr recordingmode vector(packetBytes)
attr title "packets received, packetBytes"
vector 32 TrackingSimulation.client.wlan[0].mac.dcf packetReceivedFromPeerUnicast:vector(packetBytes) ETV
attr interpolationmode none
attr recordingmode vector(packetBytes)
attr source ieee80211Unicast(packetReceivedFromPeer)
attr title "packets received: unicast, packetBytes"
vector 33 TrackingSimulation.client.wlan[0].mac.dcf packetReceivedFromPeerMulticast:vector(packetBytes) ETV
attr interpolationmode none
attr recordingmode vector(packetBytes)
attr source ieee80211Multicast(packetReceivedFromPeer)
attr title "packets received: multicast, packetBytes"
vector 34 TrackingSimulation.client.wlan[0].mac.dcf packetReceivedFromPeerBroadcast:vector(packetBytes) ETV
attr interpolationmode none
attr recordingmode vector(packetBytes)
attr source ieee80211Broadcast(packetReceivedFromPeer)
attr title "packets received: broadcast, packetBytes"
vector 35 TrackingSimulation.client.wlan[0].mac.dcf packetReceivedFromPeerWithRetry:vector(packetBytes) ETV
attr interpolationmode none
attr recordingmode vector(packetBytes)
attr source ieee80211Retry(packetReceivedFromPeer)
attr title "packets received: with retry, packetBytes"
vector 36 TrackingSimulation.client.wlan[0].mac.dcf packetReceivedFromPeerWithoutRetry:vector(packetBytes) ETV
attr interpolationmode none
attr recordingmode vector(packetBytes)
attr source ieee80211NotRetry(packetReceivedFromPeer)
attr title "packets received: without retry, packetBytes"
vector 37 TrackingSimulation.client.wlan[0].mac.dcf packetDrop:vector(packetBytes) ETV
attr interpolationmode none
attr recordingmode vector(packetBytes)
attr source packetDropped
attr title "packet drops, packetBytes"
vector 38 TrackingSimulation.client.wlan[0].mac.dcf packetDropNotAddressedToUs:vector(packetBytes) ETV
attr interpolationmode none
attr recordingmode vector(packetBytes)
attr source packetDropReasonIsNotAddressedToUs(packetDropped)
attr title "packet drops: not addressed to us, packetBytes"
vector 39 TrackingSimulation.client.wlan[0].mac.dcf packetDropQueueOverflow:vector(packetBytes) ETV
attr interpolationmode none
attr recordingmode vector(packetBytes)
attr source packetDropReasonIsQueueOverflow(packetDropped)
attr title "packet drops: queue overflow, packetBytes"
vector 40 TrackingSimulation.client.wlan[0].mac.dcf packetDropRetryLimitReached:vector(packetBytes) ETV
attr interpolationmode none
attr recordingmode vector(packetBytes)
attr source packetDropReasonIsRetryLimitReached(packetDropped)
attr title "packet drops: retry limit reached, packetBytes"
vector 41 TrackingSimulation.client.wlan[0].mac.dcf frameSequenceActive:vector ETV
attr autoWarmupFilter false
attr interpolationmode sample-hold
attr recordingmode vector
attr source warmup(count(frameSequenceStarted)-count(frameSequenceFinished))
attr title "frame sequence active"
vector 42 TrackingSimulation.client.wlan[0].mac.dcf datarateSelected:vector ETV
attr interpolationmode none
attr recordingmode vector
attr title "datarates selected"
vector 43 TrackingSimulation.client.wlan[0].mac.rx nav:vector ETV
attr interpolationmode linear
attr recordingmode vector
attr source navChanged
attr title "network allocation vector"
vector 44 TrackingSimulation.client.wlan[0].mac packetSentToUpper:vector(packetBytes) ETV
attr interpolationmode none
attr recordingmode vector(packetBytes)
attr title "packets sent to upper layer, packetBytes"
vector 45 TrackingSimulation.client.wlan[0].mac packetSentToLower:vector(packetBytes) ETV
attr interpolationmode none
attr recordingmode vector(packetBytes)
attr title "packets sent to lower layer, packetBytes"
vector 46 TrackingSimulation.client.wlan[0].mac packetReceivedFromUpper:vector(packetBytes) ETV
attr interpolationmode none
attr recordingmode vector(packetBytes)
attr title "packets received from upper layer, packetBytes"
vector 47 TrackingSimulation.client.wlan[0].mac packetReceivedFromLower:vector(packetBytes) ETV
attr interpolationmode none
attr recordingmode vector(packetBytes)
attr title "packets received from lower layer, packetBytes"
vector 48 TrackingSimulation.client.wlan[0].mac packetDrop:vector(packetBytes) ETV
attr interpolationmode none
attr recordingmode vector(packetBytes)
attr source packetDropped
attr title "packet drops, packetBytes"
vector 49 TrackingSimulation.client.wlan[0].mac packetDropIncorrectlyReceived:vector(packetBytes) ETV
attr interpolationmode none
attr recordingmode vector(packetBytes)
attr source packetDropReasonIsIncorrectlyReceived(packetDropped)
attr title "packet drops: incorrectly received, packetBytes"
vector 50 TrackingSimulation.client.wlan[0].mac packetDropNotAddressedToUs:vector(packetBytes) ETV
attr interpolationmode none
attr recordingmode vector(packetBytes)
attr source packetDropReasonIsNotAddressedToUs(packetDropped)
attr title "packet drops: not addressed to us, packetBytes"
vector 51 TrackingSimulation.client.wlan[0].mac packetDropQueueOverflow:vector(packetBytes) ETV
attr interpolationmode none
attr recordingmode vector(packetBytes)
attr source packetDropReasonIsQueueOverflow(packetDropped)
attr title "packet drops: queue overflow, packetBytes"
vector 52 TrackingSimulation.client.wlan[0].mac packetDropRetryLimitReached:vector(packetBytes) ETV
attr interpolationmode none
attr recordingmode vector(packetBytes)
attr source packetDropReasonIsRetryLimitReached(packetDropped)
attr title "packet drops: retry limit reached, packetBytes"
vector 53 TrackingSimulation.client.wlan[0].mac packetDropDuplicateDetected:vector(packetBytes) ETV
attr interpolationmode none
attr recordingmode vector(packetBytes)
attr source packetDropReasonIsDuplicateDetected(packetDropped)
attr title "packet drops: duplicate detected, packetBytes"
vector 54 TrackingSimulation.client.wlan[0].mac packetDropOther:vector(packetBytes) ETV
attr interpolationmode none
attr recordingmode vector(packetBytes)
attr source packetDropReasonIsOther(packetDropped)
attr title "packet drops: other, packetBytes"
vector 55 TrackingSimulation.client.wlan[0].radio radioMode:vector ETV
attr enum OFF,SLEEP,RECEIVER,TRANSMITTER,TRANSCEIVER,SWITCHING
attr interpolationmode sample-hold
attr recordingmode vector
attr source radioModeChanged
attr title "Radio mode"
attr type enum
vector 56 TrackingSimulation.client.wlan[0].radio receptionState:vector ETV
attr enum UNDEFINED,IDLE,BUSY,RECEIVING
attr interpolationmode sample-hold
attr recordingmode vector
attr source receptionStateChanged
attr title "Radio reception state"
attr type enum
vector 57 TrackingSimulation.client.wlan[0].radio transmissionState:vector ETV
attr enum UNDEFINED,IDLE,TRANSMITTING
attr interpolationmode sample-hold
attr recordingmode vector
attr source transmissionStateChanged
attr title "Radio transmission state"
attr type enum
vector 58 TrackingSimulation.client.wlan[0].radio radioChannel:vector ETV
attr interpolationmode sample-hold
attr recordingmode vector
attr source radioChannelChanged
attr title "Radio channel"
vector 59 TrackingSimulation.client.wlan[0] packetDropInterfaceDown:vector(packetBytes) ETV
attr interpolationmode none
attr recordingmode vector(packetBytes)
attr source packetDropReasonIsInterfaceDown(packetDropped)
attr title "packet drops: interface down, packetBytes"
vector 60 TrackingSimulation.client.wlan[0] packetDropNoCarrier:vector(packetBytes) ETV
attr interpolationmode none
attr recordingmode vector(packetBytes)
attr source packetDropReasonIsNoCarrier(packetDropped)
attr title "packet drops: no carrier, packetBytes"
vector 61 TrackingSimulation.client.ipv4.ip packetDropAddressResolutionFailed:vector(packetBytes) ETV
attr interpolationmode none
attr recordingmode vector(packetBytes)
attr source packetDropReasonIsAddressResolutionFailed(packetDropped)
attr title "packet drop: address resolution failed, packetBytes"
vector 62 TrackingSimulation.client.ipv4.ip packetDropHopLimitReached:vector(packetBytes) ETV
attr interpolationmode none
attr recordingmode vector(packetBytes)
attr source packetDropReasonIsHopLimitReached(packetDropped)
attr title "packet drop: hop limit reached, packetBytes"
vector 63 TrackingSimulation.client.ipv4.ip packetDropForwardingDisabled:vector(packetBytes) ETV
attr interpolationmode none
attr recordingmode vector(packetBytes)
attr source packetDropReasonIsForwardingDisabled(packetDropped)
attr title "packet drop: forwarding disabled, packetBytes"
vector 64 TrackingSimulation.client.ipv4.ip packetDropLifetimeExpired:vector(packetBytes) ETV
attr interpolationmode none
attr recordingmode vector(packetBytes)
attr source packetDropReasonIsLifetimeExpired(packetDropped)
attr title "packet drop: lifetime expired, packetBytes"
vector 65 TrackingSimulation.client.ipv4.ip packetDropNoInterfaceFound:vector(packetBytes) ETV
attr interpolationmode none
attr recordingmode vector(packetBytes)
attr source packetDropReasonIsNoInterfaceFound(packetDropped)
attr title "packet drop: no interface found, packetBytes"
vector 66 TrackingSimulation.client.ipv4.ip packetDropNoRouteFound:vector(packetBytes) ETV
attr interpolationmode none
attr recordingmode vector(packetBytes)
attr source packetDropReasonIsNoRouteFound(packetDropped)
attr title "packet drop: no route found, packetBytes"
vector 67 TrackingSimulation.client.ipv4.ip packetDropUndefined:vector(packetBytes) ETV
attr interpolationmode none
attr recordingmode vector(packetBytes)
attr source packetDropReasonIsUndefined(packetDropped)
attr title "packet drop: undefined, packetBytes"
vector 68 TrackingSimulation.client.ipv4.arp arpRequestSent:vector(packetBytes) ETV
attr recordingmode vector(packetBytes)
attr source arpRequestSent
attr title "ARP request sent, packetBytes"
vector 69 TrackingSimulation.client.ipv4.arp arpReplySent:vector(packetBytes) ETV
attr recordingmode vector(packetBytes)
attr source arpReplySent
attr title "ARP replies sent, packetBytes"
vector 70 TrackingSimulation.client.udp packetSent:vector(packetBytes) ETV
attr interpolationmode none
attr recordingmode vector(packetBytes)
attr source packetSent
attr title "packets sent, packetBytes"
vector 71 TrackingSimulation.client.udp packetReceived:vector(packetBytes) ETV
attr interpolationmode none
attr recordingmode vector(packetBytes)
attr source packetReceived
attr title "packets received, packetBytes"
vector 72 TrackingSimulation.client.udp passedUpPk:vector(count) ETV
attr interpolationmode none
attr recordingmode vector(count)
attr source packetSentToUpper
attr title "packets passed up, count"
vector 73 TrackingSimulation.client.udp droppedPkWrongPort:vector(count) ETV
attr interpolationmode none
attr recordingmode vector(count)
attr source packetDropReasonIsNoPortFound(packetDropped)
attr title "packets dropped (wrong port), count"
vector 74 TrackingSimulation.client.udp droppedPkBadChecksum:vector(count) ETV
attr interpolationmode none
attr recordingmode vector(count)
attr source packetDropReasonIsIncorrectlyReceived(packetDropped)
attr title "packets dropped (checksum error), count"
vector 75 TrackingSimulation.server.lo[0].lo rcvdPkFromHl:vector(packetBytes) ETV
attr interpolationmode none
attr recordingmode vector(packetBytes)
attr source packetReceivedFromUpper
attr title "packets received from higher layer, packetBytes"
vector 76 TrackingSimulation.server.lo[0].lo passedUpPk:vector(packetBytes) ETV
attr interpolationmode none
attr recordingmode vector(packetBytes)
attr source packetSentToUpper
attr title "packets passed to higher layer, packetBytes"
vector 77 TrackingSimulation.server.lo[0] packetDropInterfaceDown:vector(packetBytes) ETV
attr interpolationmode none
attr recordingmode vector(packetBytes)
attr source packetDropReasonIsInterfaceDown(packetDropped)
attr title "packet drops: interface down, packetBytes"
vector 78 TrackingSimulation.server.lo[0] packetDropNoCarrier:vector(packetBytes) ETV
attr interpolationmode none
attr recordingmode vector(packetBytes)
attr source packetDropReasonIsNoCarrier(packetDropped)
attr title "packet drops: no carrier, packetBytes"
vector 79 TrackingSimulation.server.wlan[0].agent sentRequest:vector ETV
attr recordingmode vector
attr title "sent requests"
vector 80 TrackingSimulation.server.wlan[0].agent acceptConfirm:vector ETV
attr recordingmode vector
attr title "accepted confirms"
vector 81 TrackingSimulation.server.wlan[0].agent dropConfirm:vector ETV
attr recordingmode vector
attr title "dropped confirms"
vector 82 TrackingSimulation.server.wlan[0].mac.dcf.channelAccess.pendingQueue queueLength:vector ETV
attr autoWarmupFilter false
attr interpolationmode sample-hold
attr recordingmode vector
attr source "warmup(atomic(constant0(packetPushEnded) + count(packetPushStarted) - count(packetPulled) - count(packetRemoved) - count(packetDropped)))"
attr title "queue length"
attr unit pk
vector 83 TrackingSimulation.server.wlan[0].mac.dcf.channelAccess.pendingQueue queueBitLength:vector ETV
attr autoWarmupFilter false
attr interpolationmode sample-hold
attr recordingmode vector
attr source "warmup(atomic(constant0(packetPushEnded) + sum(packetLength(packetPushStarted)) - sum(packetLength(packetPulled)) - sum(packetLength(packetRemoved)) - sum(packetLength(packetDropped))))"
attr title "queue bit length"
attr unit b
vector 84 TrackingSimulation.server.wlan[0].mac.dcf.channelAccess.pendingQueue queueingTime:vector ETV
attr interpolationmode none
attr recordingmode vector
attr source queueingTime(packetPulled)
attr title "queueing times"
attr unit s
vector 85 TrackingSimulation.server.wlan[0].mac.dcf.channelAccess.pendingQueue incomingPacketLengths:vector ETV
attr interpolationmode none
attr recordingmode vector
attr source packetLength(packetPushStarted)
attr title "incoming packet lengths"
attr unit b
vector 86 TrackingSimulation.server.wlan[0].mac.dcf.channelAccess.pendingQueue incomingDataRate:vector ETV
attr interpolationmode linear
attr recordingmode vector
attr source throughput(packetPushStarted)
attr title "incoming datarate"
attr unit bps
vector 87 TrackingSimulation.server.wlan[0].mac.dcf.channelAccess.pendingQueue outgoingPacketLengths:vector ETV
attr interpolationmode none
attr recordingmode vector
attr source packetLength(packetPulled)
attr title "outgoing packet lengths"
attr unit b
vector 88 TrackingSimulation.server.wlan[0].mac.dcf.channelAccess.pendingQueue outgoingDataRate:vector ETV
attr interpolationmode linear
attr recordingmode vector
attr source throughput(packetPulled)
attr title "outgoing datarate"
attr unit bps
vector 89 TrackingSimulation.server.wlan[0].mac.dcf.channelAccess.pendingQueue droppedPacketLengthsQueueOverflow:vector ETV
attr interpolationmode none
attr recordingmode vector
attr source packetLength(packetDropReasonIsQueueOverflow(packetDropped))
attr title "dropped packet lengths: queue overflow"
attr unit b
vector 90 TrackingSimulation.server.wlan[0].mac.dcf.channelAccess.pendingQueue flowQueueingTime:vector ETV
attr interpolationmode none
attr recordingmode vector
attr source queueingTime(demuxFlow(packetPulled))
attr title "flow queueing times"
attr unit s
vector 91 TrackingSimulation.server.wlan[0].mac.dcf.channelAccess.pendingQueue flowIncomingDataRate:vector ETV
attr interpolationmode linear
attr recordingmode vector
attr source throughput(flowPacketLength(demuxFlow(packetPushStarted)))
attr title "flow specific incoming data rate"
attr unit bps
vector 92 TrackingSimulation.server.wlan[0].mac.dcf.channelAccess.pendingQueue flowOutgoingDataRate:vector ETV
attr interpolationmode linear
attr recordingmode vector
attr source throughput(flowPacketLength(demuxFlow(packetPulled)))
attr title "flow specific outgoing data rate"
attr unit bps
vector 93 TrackingSimulation.server.wlan[0].mac.dcf.channelAccess.inProgressFrames queueingTime:vector ETV
attr interpolationmode none
attr recordingmode vector
attr source queueingTime(packetDequeued)
attr title "queueing times"
vector 94 TrackingSimulation.server.wlan[0].mac.dcf.channelAccess.inProgressFrames queueLength:vector ETV
attr autoWarmupFilter false
attr interpolationmode sample-hold
attr recordingmode vector
attr source "warmup(count(packetEnqueued) - count(packetDequeued))"
attr title "queue length"
vector 95 TrackingSimulation.server.wlan[0].mac.dcf.channelAccess.contention backoffPeriodGenerated:vector ETV
attr interpolationmode none
attr recordingmode vector
attr title "backoff periods"
vector 96 TrackingSimulation.server.wlan[0].mac.dcf.channelAccess.contention backoffActive:vector ETV
attr autoWarmupFilter false
attr interpolationmode sample-hold
attr recordingmode vector
attr source warmup(count(backoffStarted)-count(backoffStopped))
attr title "backoff active"
vector 97 TrackingSimulation.server.wlan[0].mac.dcf.channelAccess.contention stateChanged:vector ETV
attr enum IDLE,DEFER,IFS_AND_BACKOFF
attr interpolationmode none
attr recordingmode vector
attr title "contention state changed"
attr type enum
vector 98 TrackingSimulation.server.wlan[0].mac.dcf.recipientMacDataService packetDropDuplicateDetected:vector(packetBytes) ETV
attr interpolationmode none
attr recordingmode vector(packetBytes)
attr source packetDropReasonIsDuplicateDetected(packetDropped)
attr title "packet drops: duplicate detected, packetBytes"
vector 99 TrackingSimulation.server.wlan[0].mac.dcf.recoveryProcedure contentionWindowChanged:vector ETV
attr interpolationmode sample-hold
attr recordingmode vector
attr title "contention window"
vector 100 TrackingSimulation.server.wlan[0].mac.dcf packetSentToPeer:vector(packetBytes) ETV
attr interpolationmode none
attr recordingmode vector(packetBytes)
attr title "packets sent, packetBytes"
vector 101 TrackingSimulation.server.wlan[0].mac.dcf packetSentToPeerUnicast:vector(packetBytes) ETV
attr interpolationmode none
attr recordingmode vector(packetBytes)
attr source ieee80211Unicast(packetSentToPeer)
attr title "packets sent: unicast, packetBytes"
vector 102 TrackingSimulation.server.wlan[0].mac.dcf packetSentToPeerMulticast:vector(packetBytes) ETV
attr interpolationmode none
attr recordingmode vector(packetBytes)
attr source ieee80211Multicast(packetSentToPeer)
attr title "packets sent: multicast, packetBytes"
vector 103 TrackingSimulation.server.wlan[0].mac.dcf packetSentToPeerBroadcast:vector(packetBytes) ETV
attr interpolationmode none
attr recordingmode vector(packetBytes)
attr source ieee80211Broadcast(packetSentToPeer)
attr title "packets sent: broadcast , packetBytes"
vector 104 TrackingSimulation.server.wlan[0].mac.dcf packetSentToPeerWithRetry:vector(packetBytes) ETV
attr interpolationmode none
attr recordingmode vector(packetBytes)
attr source ieee80211Retry(packetSentToPeer)
attr title "packets sent: with retry, packetBytes"
vector 105 TrackingSimulation.server.wlan[0].mac.dcf packetSentToPeerWithoutRetry:vector(packetBytes) ETV
attr interpolationmode none
attr recordingmode vector(packetBytes)
attr source ieee80211NotRetry(packetSentToPeer)
attr title "packets sent: without retry, packetBytes"
vector 106 TrackingSimulation.server.wlan[0].mac.dcf packetReceivedFromPeer:vector(packetBytes) ETV
attr interpolationmode none
attr recordingmode vector(packetBytes)
attr title "packets received, packetBytes"
vector 107 TrackingSimulation.server.wlan[0].mac.dcf packetReceivedFromPeerUnicast:vector(packetBytes) ETV
attr interpolationmode none
attr recordingmode vector(packetBytes)
attr source ieee80211Unicast(packetReceivedFromPeer)
attr title "packets received: unicast, packetBytes"
vector 108 TrackingSimulation.server.wlan[0].mac.dcf packetReceivedFromPeerMulticast:vector(packetBytes) ETV
attr interpolationmode none
attr recordingmode vector(packetBytes)
attr source ieee80211Multicast(packetReceivedFromPeer)
attr title "packets received: multicast, packetBytes"
vector 109 TrackingSimulation.server.wlan[0].mac.dcf packetReceivedFromPeerBroadcast:vector(packetBytes) ETV
attr interpolationmode none
attr recordingmode vector(packetBytes)
attr source ieee80211Broadcast(packetReceivedFromPeer)
attr title "packets received: broadcast, packetBytes"
vector 110 TrackingSimulation.server.wlan[0].mac.dcf packetReceivedFromPeerWithRetry:vector(packetBytes) ETV
attr interpolationmode none
attr recordingmode vector(packetBytes)
attr source ieee80211Retry(packetReceivedFromPeer)
attr title "packets received: with retry, packetBytes"
vector 111 TrackingSimulation.server.wlan[0].mac.dcf packetReceivedFromPeerWithoutRetry:vector(packetBytes) ETV
attr interpolationmode none
attr recordingmode vector(packetBytes)
attr source ieee80211NotRetry(packetReceivedFromPeer)
attr title "packets received: without retry, packetBytes"
vector 112 TrackingSimulation.server.wlan[0].mac.dcf packetDrop:vector(packetBytes) ETV
attr interpolationmode none
attr recordingmode vector(packetBytes)
attr source packetDropped
attr title "packet drops, packetBytes"
vector 113 TrackingSimulation.server.wlan[0].mac.dcf packetDropNotAddressedToUs:vector(packetBytes) ETV
attr interpolationmode none
attr recordingmode vector(packetBytes)
attr source packetDropReasonIsNotAddressedToUs(packetDropped)
attr title "packet drops: not addressed to us, packetBytes"
vector 114 TrackingSimulation.server.wlan[0].mac.dcf packetDropQueueOverflow:vector(packetBytes) ETV
attr interpolationmode none
attr recordingmode vector(packetBytes)
attr source packetDropReasonIsQueueOverflow(packetDropped)
attr title "packet drops: queue overflow, packetBytes"
vector 115 TrackingSimulation.server.wlan[0].mac.dcf packetDropRetryLimitReached:vector(packetBytes) ETV
attr interpolationmode none
attr recordingmode vector(packetBytes)
attr source packetDropReasonIsRetryLimitReached(packetDropped)
attr title "packet drops: retry limit reached, packetBytes"
vector 116 TrackingSimulation.server.wlan[0].mac.dcf frameSequenceActive:vector ETV
attr autoWarmupFilter false
attr interpolationmode sample-hold
attr recordingmode vector
attr source warmup(count(frameSequenceStarted)-count(frameSequenceFinished))
attr title "frame sequence active"
vector 117 TrackingSimulation.server.wlan[0].mac.dcf datarateSelected:vector ETV
attr interpolationmode none
attr recordingmode vector
attr title "datarates selected"
vector 118 TrackingSimulation.server.wlan[0].mac.rx nav:vector ETV
attr interpolationmode linear
attr recordingmode vector
attr source navChanged
attr title "network allocation vector"
vector 119 TrackingSimulation.server.wlan[0].mac packetSentToUpper:vector(packetBytes) ETV
attr interpolationmode none
attr recordingmode vector(packetBytes)
attr title "packets sent to upper layer, packetBytes"
vector 120 TrackingSimulation.server.wlan[0].mac packetSentToLower:vector(packetBytes) ETV
attr interpolationmode none
attr recordingmode vector(packetBytes)
attr title "packets sent to lower layer, packetBytes"
vector 121 TrackingSimulation.server.wlan[0].mac packetReceivedFromUpper:vector(packetBytes) ETV
attr interpolationmode none
attr recordingmode vector(packetBytes)
attr title "packets received from upper layer, packetBytes"
vector 122 TrackingSimulation.server.wlan[0].mac packetReceivedFromLower:vector(packetBytes) ETV
attr interpolationmode none
attr recordingmode vector(packetBytes)
attr title "packets received from lower layer, packetBytes"
vector 123 TrackingSimulation.server.wlan[0].mac packetDrop:vector(packetBytes) ETV
attr interpolationmode none
attr recordingmode vector(packetBytes)
attr source packetDropped
attr title "packet drops, packetBytes"
vector 124 TrackingSimulation.server.wlan[0].mac packetDropIncorrectlyReceived:vector(packetBytes) ETV
attr interpolationmode none
attr recordingmode vector(packetBytes)
attr source packetDropReasonIsIncorrectlyReceived(packetDropped)
attr title "packet drops: incorrectly received, packetBytes"
vector 125 TrackingSimulation.server.wlan[0].mac packetDropNotAddressedToUs:vector(packetBytes) ETV
attr interpolationmode none
attr recordingmode vector(packetBytes)
attr source packetDropReasonIsNotAddressedToUs(packetDropped)
attr title "packet drops: not addressed to us, packetBytes"
vector 126 TrackingSimulation.server.wlan[0].mac packetDropQueueOverflow:vector(packetBytes) ETV
attr interpolationmode none
attr recordingmode vector(packetBytes)
attr source packetDropReasonIsQueueOverflow(packetDropped)
attr title "packet drops: queue overflow, packetBytes"
vector 127 TrackingSimulation.server.wlan[0].mac packetDropRetryLimitReached:vector(packetBytes) ETV
attr interpolationmode none
attr recordingmode vector(packetBytes)
attr source packetDropReasonIsRetryLimitReached(packetDropped)
attr title "packet drops: retry limit reached, packetBytes"
vector 128 TrackingSimulation.server.wlan[0].mac packetDropDuplicateDetected:vector(packetBytes) ETV
attr interpolationmode none
attr recordingmode vector(packetBytes)
attr source packetDropReasonIsDuplicateDetected(packetDropped)
attr title "packet drops: duplicate detected, packetBytes"
vector 129 TrackingSimulation.server.wlan[0].mac packetDropOther:vector(packetBytes) ETV
attr interpolationmode none
attr recordingmode vector(packetBytes)
attr source packetDropReasonIsOther(packetDropped)
attr title "packet drops: other, packetBytes"
vector 130 TrackingSimulation.server.wlan[0].radio radioMode:vector ETV
attr enum OFF,SLEEP,RECEIVER,TRANSMITTER,TRANSCEIVER,SWITCHING
attr interpolationmode sample-hold
attr recordingmode vector
attr source radioModeChanged
attr title "Radio mode"
attr type enum
vector 131 TrackingSimulation.server.wlan[0].radio receptionState:vector ETV
attr enum UNDEFINED,IDLE,BUSY,RECEIVING
attr interpolationmode sample-hold
attr recordingmode vector
attr source receptionStateChanged
attr title "Radio reception state"
attr type enum
vector 132 TrackingSimulation.server.wlan[0].radio transmissionState:vector ETV
attr enum UNDEFINED,IDLE,TRANSMITTING
attr interpolationmode sample-hold
attr recordingmode vector
attr source transmissionStateChanged
attr title "Radio transmission state"
attr type enum
vector 133 TrackingSimulation.server.wlan[0].radio radioChannel:vector ETV
attr interpolationmode sample-hold
attr recordingmode vector
attr source radioChannelChanged
attr title "Radio channel"
vector 134 TrackingSimulation.server.wlan[0] packetDropInterfaceDown:vector(packetBytes) ETV
attr interpolationmode none
attr recordingmode vector(packetBytes)
attr source packetDropReasonIsInterfaceDown(packetDropped)
attr title "packet drops: interface down, packetBytes"
vector 135 TrackingSimulation.server.wlan[0] packetDropNoCarrier:vector(packetBytes) ETV
attr interpolationmode none
attr recordingmode vector(packetBytes)
attr source packetDropReasonIsNoCarrier(packetDropped)
attr title "packet drops: no carrier, packetBytes"
vector 136 TrackingSimulation.server.ipv4.ip packetDropAddressResolutionFailed:vector(packetBytes) ETV
attr interpolationmode none
attr recordingmode vector(packetBytes)
attr source packetDropReasonIsAddressResolutionFailed(packetDropped)
attr title "packet drop: address resolution failed, packetBytes"
vector 137 TrackingSimulation.server.ipv4.ip packetDropHopLimitReached:vector(packetBytes) ETV
attr interpolationmode none
attr recordingmode vector(packetBytes)
attr source packetDropReasonIsHopLimitReached(packetDropped)
attr title "packet drop: hop limit reached, packetBytes"
vector 138 TrackingSimulation.server.ipv4.ip packetDropForwardingDisabled:vector(packetBytes) ETV
attr interpolationmode none
attr recordingmode vector(packetBytes)
attr source packetDropReasonIsForwardingDisabled(packetDropped)
attr title "packet drop: forwarding disabled, packetBytes"
vector 139 TrackingSimulation.server.ipv4.ip packetDropLifetimeExpired:vector(packetBytes) ETV
attr interpolationmode none
attr recordingmode vector(packetBytes)
attr source packetDropReasonIsLifetimeExpired(packetDropped)
attr title "packet drop: lifetime expired, packetBytes"
vector 140 TrackingSimulation.server.ipv4.ip packetDropNoInterfaceFound:vector(packetBytes) ETV
attr interpolationmode none
attr recordingmode vector(packetBytes)
attr source packetDropReasonIsNoInterfaceFound(packetDropped)
attr title "packet drop: no interface found, packetBytes"
vector 141 TrackingSimulation.server.ipv4.ip packetDropNoRouteFound:vector(packetBytes) ETV
attr interpolationmode none
attr recordingmode vector(packetBytes)
attr source packetDropReasonIsNoRouteFound(packetDropped)
attr title "packet drop: no route found, packetBytes"
vector 142 TrackingSimulation.server.ipv4.ip packetDropUndefined:vector(packetBytes) ETV
attr interpolationmode none
attr recordingmode vector(packetBytes)
attr source packetDropReasonIsUndefined(packetDropped)
attr title "packet drop: undefined, packetBytes"
vector 143 TrackingSimulation.server.ipv4.arp arpRequestSent:vector(packetBytes) ETV
attr recordingmode vector(packetBytes)
attr source arpRequestSent
attr title "ARP request sent, packetBytes"
vector 144 TrackingSimulation.server.ipv4.arp arpReplySent:vector(packetBytes) ETV
attr recordingmode vector(packetBytes)
attr source arpReplySent
attr title "ARP replies sent, packetBytes"
vector 145 TrackingSimulation.server.udp packetSent:vector(packetBytes) ETV
attr interpolationmode none
attr recordingmode vector(packetBytes)
attr source packetSent
attr title "packets sent, packetBytes"
vector 146 TrackingSimulation.server.udp packetReceived:vector(packetBytes) ETV
attr interpolationmode none
attr recordingmode vector(packetBytes)
attr source packetReceived
attr title "packets received, packetBytes"
vector 147 TrackingSimulation.server.udp passedUpPk:vector(count) ETV
attr interpolationmode none
attr recordingmode vector(count)
attr source packetSentToUpper
attr title "packets passed up, count"
vector 148 TrackingSimulation.server.udp droppedPkWrongPort:vector(count) ETV
attr interpolationmode none
attr recordingmode vector(count)
attr source packetDropReasonIsNoPortFound(packetDropped)
attr title "packets dropped (wrong port), count"
vector 149 TrackingSimulation.server.udp droppedPkBadChecksum:vector(count) ETV
attr interpolationmode none
attr recordingmode vector(count)
attr source packetDropReasonIsIncorrectlyReceived(packetDropped)
attr title "packets dropped (checksum error), count"
vector 150 TrackingSimulation.server.app[0] packetReceived:vector(packetBytes) ETV
attr interpolationmode none
attr recordingmode vector(packetBytes)
attr source packetReceived
attr title "packets received, packetBytes"
vector 151 TrackingSimulation.server.app[0] throughput:vector ETV
attr recordingmode vector
attr source throughput(packetReceived)
attr title throughput
attr unit bps
vector 152 TrackingSimulation.server.app[0] endToEndDelay:vector ETV
attr interpolationmode none
attr recordingmode vector
attr source dataAge(packetReceived)
attr title "end-to-end delay"
attr unit s
vector 153 TrackingSimulation.server.app[0] rcvdPkSeqNo:vector ETV
attr interpolationmode none
attr recordingmode vector
attr source appPkSeqNo(packetReceived)
attr title "received packet sequence number"
vector 154 TrackingSimulation.sensor[0].lo[0].lo rcvdPkFromHl:vector(packetBytes) ETV
attr interpolationmode none
attr recordingmode vector(packetBytes)
attr source packetReceivedFromUpper
attr title "packets received from higher layer, packetBytes"
vector 155 TrackingSimulation.sensor[0].lo[0].lo passedUpPk:vector(packetBytes) ETV
attr interpolationmode none
attr recordingmode vector(packetBytes)
attr source packetSentToUpper
attr title "packets passed to higher layer, packetBytes"
vector 156 TrackingSimulation.sensor[0].lo[0] packetDropInterfaceDown:vector(packetBytes) ETV
attr interpolationmode none
attr recordingmode vector(packetBytes)
attr source packetDropReasonIsInterfaceDown(packetDropped)
attr title "packet drops: interface down, packetBytes"
vector 157 TrackingSimulation.sensor[0].lo[0] packetDropNoCarrier:vector(packetBytes) ETV
attr interpolationmode none
attr recordingmode vector(packetBytes)
attr source packetDropReasonIsNoCarrier(packetDropped)
attr title "packet drops: no carrier, packetBytes"
vector 158 TrackingSimulation.sensor[0].wlan[0].agent sentRequest:vector ETV
attr recordingmode vector
attr title "sent requests"
vector 159 TrackingSimulation.sensor[0].wlan[0].agent acceptConfirm:vector ETV
attr recordingmode vector
attr title "accepted confirms"
vector 160 TrackingSimulation.sensor[0].wlan[0].agent dropConfirm:vector ETV
attr recordingmode vector
attr title "dropped confirms"
vector 161 TrackingSimulation.sensor[0].wlan[0].mac.dcf.channelAccess.pendingQueue queueLength:vector ETV
attr autoWarmupFilter false
attr interpolationmode sample-hold
attr recordingmode vector
attr source "warmup(atomic(constant0(packetPushEnded) + count(packetPushStarted) - count(packetPulled) - count(packetRemoved) - count(packetDropped)))"
attr title "queue length"
attr unit pk
vector 162 TrackingSimulation.sensor[0].wlan[0].mac.dcf.channelAccess.pendingQueue queueBitLength:vector ETV
attr autoWarmupFilter false
attr interpolationmode sample-hold
attr recordingmode vector
attr source "warmup(atomic(constant0(packetPushEnded) + sum(packetLength(packetPushStarted)) - sum(packetLength(packetPulled)) - sum(packetLength(packetRemoved)) - sum(packetLength(packetDropped))))"
attr title "queue bit length"
attr unit b
vector 163 TrackingSimulation.sensor[0].wlan[0].mac.dcf.channelAccess.pendingQueue queueingTime:vector ETV
attr interpolationmode none
attr recordingmode vector
attr source queueingTime(packetPulled)
attr title "queueing times"
attr unit s
vector 164 TrackingSimulation.sensor[0].wlan[0].mac.dcf.channelAccess.pendingQueue incomingPacketLengths:vector ETV
attr interpolationmode none
attr recordingmode vector
attr source packetLength(packetPushStarted)
attr title "incoming packet lengths"
attr unit b
vector 165 TrackingSimulation.sensor[0].wlan[0].mac.dcf.channelAccess.pendingQueue incomingDataRate:vector ETV
attr interpolationmode linear
attr recordingmode vector
attr source throughput(packetPushStarted)
attr title "incoming datarate"
attr unit bps
vector 166 TrackingSimulation.sensor[0].wlan[0].mac.dcf.channelAccess.pendingQueue outgoingPacketLengths:vector ETV
attr interpolationmode none
attr recordingmode vector
attr source packetLength(packetPulled)
attr title "outgoing packet lengths"
attr unit b
vector 167 TrackingSimulation.sensor[0].wlan[0].mac.dcf.channelAccess.pendingQueue outgoingDataRate:vector ETV
attr interpolationmode linear
attr recordingmode vector
attr source throughput(packetPulled)
attr title "outgoing datarate"
attr unit bps
vector 168 TrackingSimulation.sensor[0].wlan[0].mac.dcf.channelAccess.pendingQueue droppedPacketLengthsQueueOverflow:vector ETV
attr interpolationmode none
attr recordingmode vector
attr source packetLength(packetDropReasonIsQueueOverflow(packetDropped))
attr title "dropped packet lengths: queue overflow"
attr unit b
vector 169 TrackingSimulation.sensor[0].wlan[0].mac.dcf.channelAccess.pendingQueue flowQueueingTime:vector ETV
attr interpolationmode none
attr recordingmode vector
attr source queueingTime(demuxFlow(packetPulled))
attr title "flow queueing times"
attr unit s
vector 170 TrackingSimulation.sensor[0].wlan[0].mac.dcf.channelAccess.pendingQueue flowIncomingDataRate:vector ETV
attr interpolationmode linear
attr recordingmode vector
attr source throughput(flowPacketLength(demuxFlow(packetPushStarted)))
attr title "flow specific incoming data rate"
attr unit bps
vector 171 TrackingSimulation.sensor[0].wlan[0].mac.dcf.channelAccess.pendingQueue flowOutgoingDataRate:vector ETV
attr interpolationmode linear
attr recordingmode vector
attr source throughput(flowPacketLength(demuxFlow(packetPulled)))
attr title "flow specific outgoing data rate"
attr unit bps
vector 172 TrackingSimulation.sensor[0].wlan[0].mac.dcf.channelAccess.inProgressFrames queueingTime:vector ETV
attr interpolationmode none
attr recordingmode vector
attr source queueingTime(packetDequeued)
attr title "queueing times"
vector 173 TrackingSimulation.sensor[0].wlan[0].mac.dcf.channelAccess.inProgressFrames queueLength:vector ETV
attr autoWarmupFilter false
attr interpolationmode sample-hold
attr recordingmode vector
attr source "warmup(count(packetEnqueued) - count(packetDequeued))"
attr title "queue length"
vector 174 TrackingSimulation.sensor[0].wlan[0].mac.dcf.channelAccess.contention backoffPeriodGenerated:vector ETV
attr interpolationmode none
attr recordingmode vector
attr title "backoff periods"
vector 175 TrackingSimulation.sensor[0].wlan[0].mac.dcf.channelAccess.contention backoffActive:vector ETV
attr autoWarmupFilter false
attr interpolationmode sample-hold
attr recordingmode vector
attr source warmup(count(backoffStarted)-count(backoffStopped))
attr title "backoff active"
vector 176 TrackingSimulation.sensor[0].wlan[0].mac.dcf.channelAccess.contention stateChanged:vector ETV
attr enum IDLE,DEFER,IFS_AND_BACKOFF
attr interpolationmode none
attr recordingmode vector
attr title "contention state changed"
attr type enum
vector 177 TrackingSimulation.sensor[0].wlan[0].mac.dcf.recipientMacDataService packetDropDuplicateDetected:vector(packetBytes) ETV
attr interpolationmode none
attr recordingmode vector(packetBytes)
attr source packetDropReasonIsDuplicateDetected(packetDropped)
attr title "packet drops: duplicate detected, packetBytes"
vector 178 TrackingSimulation.sensor[0].wlan[0].mac.dcf.recoveryProcedure contentionWindowChanged:vector ETV
attr interpolationmode sample-hold
attr recordingmode vector
attr title "contention window"
vector 179 TrackingSimulation.sensor[0].wlan[0].mac.dcf packetSentToPeer:vector(packetBytes) ETV
attr interpolationmode none
attr recordingmode vector(packetBytes)
attr title "packets sent, packetBytes"
vector 180 TrackingSimulation.sensor[0].wlan[0].mac.dcf packetSentToPeerUnicast:vector(packetBytes) ETV
attr interpolationmode none
attr recordingmode vector(packetBytes)
attr source ieee80211Unicast(packetSentToPeer)
attr title "packets sent: unicast, packetBytes"
vector 181 TrackingSimulation.sensor[0].wlan[0].mac.dcf packetSentToPeerMulticast:vector(packetBytes) ETV
attr interpolationmode none
attr recordingmode vector(packetBytes)
attr source ieee80211Multicast(packetSentToPeer)
attr title "packets sent: multicast, packetBytes"
vector 182 TrackingSimulation.sensor[0].wlan[0].mac.dcf packetSentToPeerBroadcast:vector(packetBytes) ETV
attr interpolationmode none
attr recordingmode vector(packetBytes)
attr source ieee80211Broadcast(packetSentToPeer)
attr title "packets sent: broadcast , packetBytes"
vector 183 TrackingSimulation.sensor[0].wlan[0].mac.dcf packetSentToPeerWithRetry:vector(packetBytes) ETV
attr interpolationmode none
attr recordingmode vector(packetBytes)
attr source ieee80211Retry(packetSentToPeer)
attr title "packets sent: with retry, packetBytes"
vector 184 TrackingSimulation.sensor[0].wlan[0].mac.dcf packetSentToPeerWithoutRetry:vector(packetBytes) ETV
attr interpolationmode none
attr recordingmode vector(packetBytes)
attr source ieee80211NotRetry(packetSentToPeer)
attr title "packets sent: without retry, packetBytes"
vector 185 TrackingSimulation.sensor[0].wlan[0].mac.dcf packetReceivedFromPeer:vector(packetBytes) ETV
attr interpolationmode none
attr recordingmode vector(packetBytes)
attr title "packets received, packetBytes"
vector 186 TrackingSimulation.sensor[0].wlan[0].mac.dcf packetReceivedFromPeerUnicast:vector(packetBytes) ETV
attr interpolationmode none
attr recordingmode vector(packetBytes)
attr source ieee80211Unicast(packetReceivedFromPeer)
attr title "packets received: unicast, packetBytes"
vector 187 TrackingSimulation.sensor[0].wlan[0].mac.dcf packetReceivedFromPeerMulticast:vector(packetBytes) ETV
attr interpolationmode none
attr recordingmode vector(packetBytes)
attr source ieee80211Multicast(packetReceivedFromPeer)
attr title "packets received: multicast, packetBytes"
vector 188 TrackingSimulation.sensor[0].wlan[0].mac.dcf packetReceivedFromPeerBroadcast:vector(packetBytes) ETV
attr interpolationmode none
attr recordingmode vector(packetBytes)
attr source ieee80211Broadcast(packetReceivedFromPeer)
attr title "packets received: broadcast, packetBytes"
vector 189 TrackingSimulation.sensor[0].wlan[0].mac.dcf packetReceivedFromPeerWithRetry:vector(packetBytes) ETV
attr interpolationmode none
attr recordingmode vector(packetBytes)
attr source ieee80211Retry(packetReceivedFromPeer)
attr title "packets received: with retry, packetBytes"
vector 190 TrackingSimulation.sensor[0].wlan[0].mac.dcf packetReceivedFromPeerWithoutRetry:vector(packetBytes) ETV
attr interpolationmode none
attr recordingmode vector(packetBytes)
attr source ieee80211NotRetry(packetReceivedFromPeer)
attr title "packets received: without retry, packetBytes"
vector 191 TrackingSimulation.sensor[0].wlan[0].mac.dcf packetDrop:vector(packetBytes) ETV
attr interpolationmode none
attr recordingmode vector(packetBytes)
attr source packetDropped
attr title "packet drops, packetBytes"
vector 192 TrackingSimulation.sensor[0].wlan[0].mac.dcf packetDropNotAddressedToUs:vector(packetBytes) ETV
attr interpolationmode none
attr recordingmode vector(packetBytes)
attr source packetDropReasonIsNotAddressedToUs(packetDropped)
attr title "packet drops: not addressed to us, packetBytes"
vector 193 TrackingSimulation.sensor[0].wlan[0].mac.dcf packetDropQueueOverflow:vector(packetBytes) ETV
attr interpolationmode none
attr recordingmode vector(packetBytes)
attr source packetDropReasonIsQueueOverflow(packetDropped)
attr title "packet drops: queue overflow, packetBytes"
vector 194 TrackingSimulation.sensor[0].wlan[0].mac.dcf packetDropRetryLimitReached:vector(packetBytes) ETV
attr interpolationmode none
attr recordingmode vector(packetBytes)
attr source packetDropReasonIsRetryLimitReached(packetDropped)
attr title "packet drops: retry limit reached, packetBytes"
vector 195 TrackingSimulation.sensor[0].wlan[0].mac.dcf frameSequenceActive:vector ETV
attr autoWarmupFilter false
attr interpolationmode sample-hold
attr recordingmode vector
attr source warmup(count(frameSequenceStarted)-count(frameSequenceFinished))
attr title "frame sequence active"
vector 196 TrackingSimulation.sensor[0].wlan[0].mac.dcf datarateSelected:vector ETV
attr interpolationmode none
attr recordingmode vector
attr title "datarates selected"
vector 197 TrackingSimulation.sensor[0].wlan[0].mac.rx nav:vector ETV
attr interpolationmode linear
attr recordingmode vector
attr source navChanged
attr title "network allocation vector"
vector 198 TrackingSimulation.sensor[0].wlan[0].mac packetSentToUpper:vector(packetBytes) ETV
attr interpolationmode none
attr recordingmode vector(packetBytes)
attr title "packets sent to upper layer, packetBytes"
vector 199 TrackingSimulation.sensor[0].wlan[0].mac packetSentToLower:vector(packetBytes) ETV
attr interpolationmode none
attr recordingmode vector(packetBytes)
attr title "packets sent to lower layer, packetBytes"
vector 200 TrackingSimulation.sensor[0].wlan[0].mac packetReceivedFromUpper:vector(packetBytes) ETV
attr interpolationmode none
attr recordingmode vector(packetBytes)
attr title "packets received from upper layer, packetBytes"
vector 201 TrackingSimulation.sensor[0].wlan[0].mac packetReceivedFromLower:vector(packetBytes) ETV
attr interpolationmode none
attr recordingmode vector(packetBytes)
attr title "packets received from lower layer, packetBytes"
vector 202 TrackingSimulation.sensor[0].wlan[0].mac packetDrop:vector(packetBytes) ETV
attr interpolationmode none
attr recordingmode vector(packetBytes)
attr source packetDropped
attr title "packet drops, packetBytes"
vector 203 TrackingSimulation.sensor[0].wlan[0].mac packetDropIncorrectlyReceived:vector(packetBytes) ETV
attr interpolationmode none
attr recordingmode vector(packetBytes)
attr source packetDropReasonIsIncorrectlyReceived(packetDropped)
attr title "packet drops: incorrectly received, packetBytes"
vector 204 TrackingSimulation.sensor[0].wlan[0].mac packetDropNotAddressedToUs:vector(packetBytes) ETV
attr interpolationmode none
attr recordingmode vector(packetBytes)
attr source packetDropReasonIsNotAddressedToUs(packetDropped)
attr title "packet drops: not addressed to us, packetBytes"
vector 205 TrackingSimulation.sensor[0].wlan[0].mac packetDropQueueOverflow:vector(packetBytes) ETV
attr interpolationmode none
attr recordingmode vector(packetBytes)
attr source packetDropReasonIsQueueOverflow(packetDropped)
attr title "packet drops: queue overflow, packetBytes"
vector 206 TrackingSimulation.sensor[0].wlan[0].mac packetDropRetryLimitReached:vector(packetBytes) ETV
attr interpolationmode none
attr recordingmode vector(packetBytes)
attr source packetDropReasonIsRetryLimitReached(packetDropped)
attr title "packet drops: retry limit reached, packetBytes"
vector 207 TrackingSimulation.sensor[0].wlan[0].mac packetDropDuplicateDetected:vector(packetBytes) ETV
attr interpolationmode none
attr recordingmode vector(packetBytes)
attr source packetDropReasonIsDuplicateDetected(packetDropped)
attr title "packet drops: duplicate detected, packetBytes"
vector 208 TrackingSimulation.sensor[0].wlan[0].mac packetDropOther:vector(packetBytes) ETV
attr interpolationmode none
attr recordingmode vector(packetBytes)
attr source packetDropReasonIsOther(packetDropped)
attr title "packet drops: other, packetBytes"
vector 209 TrackingSimulation.sensor[0].wlan[0].radio radioMode:vector ETV
attr enum OFF,SLEEP,RECEIVER,TRANSMITTER,TRANSCEIVER,SWITCHING
attr interpolationmode sample-hold
attr recordingmode vector
attr source radioModeChanged
attr title "Radio mode"
attr type enum
vector 210 TrackingSimulation.sensor[0].wlan[0].radio receptionState:vector ETV
attr enum UNDEFINED,IDLE,BUSY,RECEIVING
attr interpolationmode sample-hold
attr recordingmode vector
attr source receptionStateChanged
attr title "Radio reception state"
attr type enum
vector 211 TrackingSimulation.sensor[0].wlan[0].radio transmissionState:vector ETV
attr enum UNDEFINED,IDLE,TRANSMITTING
attr interpolationmode sample-hold
attr recordingmode vector
attr source transmissionStateChanged
attr title "Radio transmission state"
attr type enum
vector 212 TrackingSimulation.sensor[0].wlan[0].radio radioChannel:vector ETV
attr interpolationmode sample-hold
attr recordingmode vector
attr source radioChannelChanged
attr title "Radio channel"
vector 213 TrackingSimulation.sensor[0].wlan[0] packetDropInterfaceDown:vector(packetBytes) ETV
attr interpolationmode none
attr recordingmode vector(packetBytes)
attr source packetDropReasonIsInterfaceDown(packetDropped)
attr title "packet drops: interface down, packetBytes"
vector 214 TrackingSimulation.sensor[0].wlan[0] packetDropNoCarrier:vector(packetBytes) ETV
attr interpolationmode none
attr recordingmode vector(packetBytes)
attr source packetDropReasonIsNoCarrier(packetDropped)
attr title "packet drops: no carrier, packetBytes"
vector 215 TrackingSimulation.sensor[0].ipv4.ip packetDropAddressResolutionFailed:vector(packetBytes) ETV
attr interpolationmode none
attr recordingmode vector(packetBytes)
attr source packetDropReasonIsAddressResolutionFailed(packetDropped)
attr title "packet drop: address resolution failed, packetBytes"
vector 216 TrackingSimulation.sensor[0].ipv4.ip packetDropHopLimitReached:vector(packetBytes) ETV
attr interpolationmode none
attr recordingmode vector(packetBytes)
attr source packetDropReasonIsHopLimitReached(packetDropped)
attr title "packet drop: hop limit reached, packetBytes"
vector 217 TrackingSimulation.sensor[0].ipv4.ip packetDropForwardingDisabled:vector(packetBytes) ETV
attr interpolationmode none
attr recordingmode vector(packetBytes)
attr source packetDropReasonIsForwardingDisabled(packetDropped)
attr title "packet drop: forwarding disabled, packetBytes"
vector 218 TrackingSimulation.sensor[0].ipv4.ip packetDropLifetimeExpired:vector(packetBytes) ETV
attr interpolationmode none
attr recordingmode vector(packetBytes)
attr source packetDropReasonIsLifetimeExpired(packetDropped)
attr title "packet drop: lifetime expired, packetBytes"
vector 219 TrackingSimulation.sensor[0].ipv4.ip packetDropNoInterfaceFound:vector(packetBytes) ETV
attr interpolationmode none
attr recordingmode vector(packetBytes)
attr source packetDropReasonIsNoInterfaceFound(packetDropped)
attr title "packet drop: no interface found, packetBytes"
vector 220 TrackingSimulation.sensor[0].ipv4.ip packetDropNoRouteFound:vector(packetBytes) ETV
attr interpolationmode none
attr recordingmode vector(packetBytes)
attr source packetDropReasonIsNoRouteFound(packetDropped)
attr title "packet drop: no route found, packetBytes"
vector 221 TrackingSimulation.sensor[0].ipv4.ip packetDropUndefined:vector(packetBytes) ETV
attr interpolationmode none
attr recordingmode vector(packetBytes)
attr source packetDropReasonIsUndefined(packetDropped)
attr title "packet drop: undefined, packetBytes"
vector 222 TrackingSimulation.sensor[0].ipv4.arp arpRequestSent:vector(packetBytes) ETV
attr recordingmode vector(packetBytes)
attr source arpRequestSent
attr title "ARP request sent, packetBytes"
vector 223 TrackingSimulation.sensor[0].ipv4.arp arpReplySent:vector(packetBytes) ETV
attr recordingmode vector(packetBytes)
attr source arpReplySent
attr title "ARP replies sent, packetBytes"
vector 224 TrackingSimulation.sensor[0].udp packetSent:vector(packetBytes) ETV
attr interpolationmode none
attr recordingmode vector(packetBytes)
attr source packetSent
attr title "packets sent, packetBytes"
vector 225 TrackingSimulation.sensor[0].udp packetReceived:vector(packetBytes) ETV
attr interpolationmode none
attr recordingmode vector(packetBytes)
attr source packetReceived
attr title "packets received, packetBytes"
vector 226 TrackingSimulation.sensor[0].udp passedUpPk:vector(count) ETV
attr interpolationmode none
attr recordingmode vector(count)
attr source packetSentToUpper
attr title "packets passed up, count"
vector 227 TrackingSimulation.sensor[0].udp droppedPkWrongPort:vector(count) ETV
attr interpolationmode none
attr recordingmode vector(count)
attr source packetDropReasonIsNoPortFound(packetDropped)
attr title "packets dropped (wrong port), count"
vector 228 TrackingSimulation.sensor[0].udp droppedPkBadChecksum:vector(count) ETV
attr interpolationmode none
attr recordingmode vector(count)
attr source packetDropReasonIsIncorrectlyReceived(packetDropped)
attr title "packets dropped (checksum error), count"
vector 229 TrackingSimulation.sensor[0].app[0] packetReceived:vector(packetBytes) ETV
attr interpolationmode none
attr recordingmode vector(packetBytes)
attr source packetReceived
attr title "packets received, packetBytes"
vector 230 TrackingSimulation.sensor[0].app[0] throughput:vector ETV
attr recordingmode vector
attr source throughput(packetReceived)
attr title throughput
attr unit bps
vector 231 TrackingSimulation.sensor[0].app[0] packetSent:vector(packetBytes) ETV
attr interpolationmode none
attr recordingmode vector(packetBytes)
attr source packetSent
attr title "packets sent, packetBytes"
vector 232 TrackingSimulation.sensor[0].app[0] rcvdPkLifetime:vector ETV
attr interpolationmode none
attr recordingmode vector
attr source dataAge(packetReceived)
attr title "received packet lifetime"
attr unit s
vector 233 TrackingSimulation.sensor[0].app[0] rcvdPkSeqNo:vector ETV
attr interpolationmode none
attr recordingmode vector
attr source appPkSeqNo(packetReceived)
attr title "received packet sequence number"
vector 234 TrackingSimulation.sensor[1].lo[0].lo rcvdPkFromHl:vector(packetBytes) ETV
attr interpolationmode none
attr recordingmode vector(packetBytes)
attr source packetReceivedFromUpper
attr title "packets received from higher layer, packetBytes"
vector 235 TrackingSimulation.sensor[1].lo[0].lo passedUpPk:vector(packetBytes) ETV
attr interpolationmode none
attr recordingmode vector(packetBytes)
attr source packetSentToUpper
attr title "packets passed to higher layer, packetBytes"
vector 236 TrackingSimulation.sensor[1].lo[0] packetDropInterfaceDown:vector(packetBytes) ETV
attr interpolationmode none
attr recordingmode vector(packetBytes)
attr source packetDropReasonIsInterfaceDown(packetDropped)
attr title "packet drops: interface down, packetBytes"
vector 237 TrackingSimulation.sensor[1].lo[0] packetDropNoCarrier:vector(packetBytes) ETV
attr interpolationmode none
attr recordingmode vector(packetBytes)
attr source packetDropReasonIsNoCarrier(packetDropped)
attr title "packet drops: no carrier, packetBytes"
vector 238 TrackingSimulation.sensor[1].wlan[0].agent sentRequest:vector ETV
attr recordingmode vector
attr title "sent requests"
vector 239 TrackingSimulation.sensor[1].wlan[0].agent acceptConfirm:vector ETV
attr recordingmode vector
attr title "accepted confirms"
vector 240 TrackingSimulation.sensor[1].wlan[0].agent dropConfirm:vector ETV
attr recordingmode vector
attr title "dropped confirms"
vector 241 TrackingSimulation.sensor[1].wlan[0].mac.dcf.channelAccess.pendingQueue queueLength:vector ETV
attr autoWarmupFilter false
attr interpolationmode sample-hold
attr recordingmode vector
attr source "warmup(atomic(constant0(packetPushEnded) + count(packetPushStarted) - count(packetPulled) - count(packetRemoved) - count(packetDropped)))"
attr title "queue length"
attr unit pk
vector 242 TrackingSimulation.sensor[1].wlan[0].mac.dcf.channelAccess.pendingQueue queueBitLength:vector ETV
attr autoWarmupFilter false
attr interpolationmode sample-hold
attr recordingmode vector
attr source "warmup(atomic(constant0(packetPushEnded) + sum(packetLength(packetPushStarted)) - sum(packetLength(packetPulled)) - sum(packetLength(packetRemoved)) - sum(packetLength(packetDropped))))"
attr title "queue bit length"
attr unit b
vector 243 TrackingSimulation.sensor[1].wlan[0].mac.dcf.channelAccess.pendingQueue queueingTime:vector ETV
attr interpolationmode none
attr recordingmode vector
attr source queueingTime(packetPulled)
attr title "queueing times"
attr unit s
vector 244 TrackingSimulation.sensor[1].wlan[0].mac.dcf.channelAccess.pendingQueue incomingPacketLengths:vector ETV
attr interpolationmode none
attr recordingmode vector
attr source packetLength(packetPushStarted)
attr title "incoming packet lengths"
attr unit b
vector 245 TrackingSimulation.sensor[1].wlan[0].mac.dcf.channelAccess.pendingQueue incomingDataRate:vector ETV
attr interpolationmode linear
attr recordingmode vector
attr source throughput(packetPushStarted)
attr title "incoming datarate"
attr unit bps
vector 246 TrackingSimulation.sensor[1].wlan[0].mac.dcf.channelAccess.pendingQueue outgoingPacketLengths:vector ETV
attr interpolationmode none
attr recordingmode vector
attr source packetLength(packetPulled)
attr title "outgoing packet lengths"
attr unit b
vector 247 TrackingSimulation.sensor[1].wlan[0].mac.dcf.channelAccess.pendingQueue outgoingDataRate:vector ETV
attr interpolationmode linear
attr recordingmode vector
attr source throughput(packetPulled)
attr title "outgoing datarate"
attr unit bps
vector 248 TrackingSimulation.sensor[1].wlan[0].mac.dcf.channelAccess.pendingQueue droppedPacketLengthsQueueOverflow:vector ETV
attr interpolationmode none
attr recordingmode vector
attr source packetLength(packetDropReasonIsQueueOverflow(packetDropped))
attr title "dropped packet lengths: queue overflow"
attr unit b
vector 249 TrackingSimulation.sensor[1].wlan[0].mac.dcf.channelAccess.pendingQueue flowQueueingTime:vector ETV
attr interpolationmode none
attr recordingmode vector
attr source queueingTime(demuxFlow(packetPulled))
attr title "flow queueing times"
attr unit s
vector 250 TrackingSimulation.sensor[1].wlan[0].mac.dcf.channelAccess.pendingQueue flowIncomingDataRate:vector ETV
attr interpolationmode linear
attr recordingmode vector
attr source throughput(flowPacketLength(demuxFlow(packetPushStarted)))
attr title "flow specific incoming data rate"
attr unit bps
vector 251 TrackingSimulation.sensor[1].wlan[0].mac.dcf.channelAccess.pendingQueue flowOutgoingDataRate:vector ETV
attr interpolationmode linear
attr recordingmode vector
attr source throughput(flowPacketLength(demuxFlow(packetPulled)))
attr title "flow specific outgoing data rate"
attr unit bps
vector 252 TrackingSimulation.sensor[1].wlan[0].mac.dcf.channelAccess.inProgressFrames queueingTime:vector ETV
attr interpolationmode none
attr recordingmode vector
attr source queueingTime(packetDequeued)
attr title "queueing times"
vector 253 TrackingSimulation.sensor[1].wlan[0].mac.dcf.channelAccess.inProgressFrames queueLength:vector ETV
attr autoWarmupFilter false
attr interpolationmode sample-hold
attr recordingmode vector
attr source "warmup(count(packetEnqueued) - count(packetDequeued))"
attr title "queue length"
vector 254 TrackingSimulation.sensor[1].wlan[0].mac.dcf.channelAccess.contention backoffPeriodGenerated:vector ETV
attr interpolationmode none
attr recordingmode vector
attr title "backoff periods"
vector 255 TrackingSimulation.sensor[1].wlan[0].mac.dcf.channelAccess.contention backoffActive:vector ETV
attr autoWarmupFilter false
attr interpolationmode sample-hold
attr recordingmode vector
attr source warmup(count(backoffStarted)-count(backoffStopped))
attr title "backoff active"
vector 256 TrackingSimulation.sensor[1].wlan[0].mac.dcf.channelAccess.contention stateChanged:vector ETV
attr enum IDLE,DEFER,IFS_AND_BACKOFF
attr interpolationmode none
attr recordingmode vector
attr title "contention state changed"
attr type enum
vector 257 TrackingSimulation.sensor[1].wlan[0].mac.dcf.recipientMacDataService packetDropDuplicateDetected:vector(packetBytes) ETV
attr interpolationmode none
attr recordingmode vector(packetBytes)
attr source packetDropReasonIsDuplicateDetected(packetDropped)
attr title "packet drops: duplicate detected, packetBytes"
vector 258 TrackingSimulation.sensor[1].wlan[0].mac.dcf.recoveryProcedure contentionWindowChanged:vector ETV
attr interpolationmode sample-hold
attr recordingmode vector
attr title "contention window"
vector 259 TrackingSimulation.sensor[1].wlan[0].mac.dcf packetSentToPeer:vector(packetBytes) ETV
attr interpolationmode none
attr recordingmode vector(packetBytes)
attr title "packets sent, packetBytes"
vector 260 TrackingSimulation.sensor[1].wlan[0].mac.dcf packetSentToPeerUnicast:vector(packetBytes) ETV
attr interpolationmode none
attr recordingmode vector(packetBytes)
attr source ieee80211Unicast(packetSentToPeer)
attr title "packets sent: unicast, packetBytes"
vector 261 TrackingSimulation.sensor[1].wlan[0].mac.dcf packetSentToPeerMulticast:vector(packetBytes) ETV
attr interpolationmode none
attr recordingmode vector(packetBytes)
attr source ieee80211Multicast(packetSentToPeer)
attr title "packets sent: multicast, packetBytes"
vector 262 TrackingSimulation.sensor[1].wlan[0].mac.dcf packetSentToPeerBroadcast:vector(packetBytes) ETV
attr interpolationmode none
attr recordingmode vector(packetBytes)
attr source ieee80211Broadcast(packetSentToPeer)
attr title "packets sent: broadcast , packetBytes"
vector 263 TrackingSimulation.sensor[1].wlan[0].mac.dcf packetSentToPeerWithRetry:vector(packetBytes) ETV
attr interpolationmode none
attr recordingmode vector(packetBytes)
attr source ieee80211Retry(packetSentToPeer)
attr title "packets sent: with retry, packetBytes"
vector 264 TrackingSimulation.sensor[1].wlan[0].mac.dcf packetSentToPeerWithoutRetry:vector(packetBytes) ETV
attr interpolationmode none
attr recordingmode vector(packetBytes)
attr source ieee80211NotRetry(packetSentToPeer)
attr title "packets sent: without retry, packetBytes"
vector 265 TrackingSimulation.sensor[1].wlan[0].mac.dcf packetReceivedFromPeer:vector(packetBytes) ETV
attr interpolationmode none
attr recordingmode vector(packetBytes)
attr title "packets received, packetBytes"
vector 266 TrackingSimulation.sensor[1].wlan[0].mac.dcf packetReceivedFromPeerUnicast:vector(packetBytes) ETV
attr interpolationmode none
attr recordingmode vector(packetBytes)
attr source ieee80211Unicast(packetReceivedFromPeer)
attr title "packets received: unicast, packetBytes"
vector 267 TrackingSimulation.sensor[1].wlan[0].mac.dcf packetReceivedFromPeerMulticast:vector(packetBytes) ETV
attr interpolationmode none
attr recordingmode vector(packetBytes)
attr source ieee80211Multicast(packetReceivedFromPeer)
attr title "packets received: multicast, packetBytes"
vector 268 TrackingSimulation.sensor[1].wlan[0].mac.dcf packetReceivedFromPeerBroadcast:vector(packetBytes) ETV
attr interpolationmode none
attr recordingmode vector(packetBytes)
attr source ieee80211Broadcast(packetReceivedFromPeer)
attr title "packets received: broadcast, packetBytes"
vector 269 TrackingSimulation.sensor[1].wlan[0].mac.dcf packetReceivedFromPeerWithRetry:vector(packetBytes) ETV
attr interpolationmode none
attr recordingmode vector(packetBytes)
attr source ieee80211Retry(packetReceivedFromPeer)
attr title "packets received: with retry, packetBytes"
vector 270 TrackingSimulation.sensor[1].wlan[0].mac.dcf packetReceivedFromPeerWithoutRetry:vector(packetBytes) ETV
attr interpolationmode none
attr recordingmode vector(packetBytes)
attr source ieee80211NotRetry(packetReceivedFromPeer)
attr title "packets received: without retry, packetBytes"
vector 271 TrackingSimulation.sensor[1].wlan[0].mac.dcf packetDrop:vector(packetBytes) ETV
attr interpolationmode none
attr recordingmode vector(packetBytes)
attr source packetDropped
attr title "packet drops, packetBytes"
vector 272 TrackingSimulation.sensor[1].wlan[0].mac.dcf packetDropNotAddressedToUs:vector(packetBytes) ETV
attr interpolationmode none
attr recordingmode vector(packetBytes)
attr source packetDropReasonIsNotAddressedToUs(packetDropped)
attr title "packet drops: not addressed to us, packetBytes"
vector 273 TrackingSimulation.sensor[1].wlan[0].mac.dcf packetDropQueueOverflow:vector(packetBytes) ETV
attr interpolationmode none
attr recordingmode vector(packetBytes)
attr source packetDropReasonIsQueueOverflow(packetDropped)
attr title "packet drops: queue overflow, packetBytes"
vector 274 TrackingSimulation.sensor[1].wlan[0].mac.dcf packetDropRetryLimitReached:vector(packetBytes) ETV
attr interpolationmode none
attr recordingmode vector(packetBytes)
attr source packetDropReasonIsRetryLimitReached(packetDropped)
attr title "packet drops: retry limit reached, packetBytes"
vector 275 TrackingSimulation.sensor[1].wlan[0].mac.dcf frameSequenceActive:vector ETV
attr autoWarmupFilter false
attr interpolationmode sample-hold
attr recordingmode vector
attr source warmup(count(frameSequenceStarted)-count(frameSequenceFinished))
attr title "frame sequence active"
vector 276 TrackingSimulation.sensor[1].wlan[0].mac.dcf datarateSelected:vector ETV
attr interpolationmode none
attr recordingmode vector
attr title "datarates selected"
vector 277 TrackingSimulation.sensor[1].wlan[0].mac.rx nav:vector ETV
attr interpolationmode linear
attr recordingmode vector
attr source navChanged
attr title "network allocation vector"
vector 278 TrackingSimulation.sensor[1].wlan[0].mac packetSentToUpper:vector(packetBytes) ETV
attr interpolationmode none
attr recordingmode vector(packetBytes)
attr title "packets sent to upper layer, packetBytes"
vector 279 TrackingSimulation.sensor[1].wlan[0].mac packetSentToLower:vector(packetBytes) ETV
attr interpolationmode none
attr recordingmode vector(packetBytes)
attr title "packets sent to lower layer, packetBytes"
vector 280 TrackingSimulation.sensor[1].wlan[0].mac packetReceivedFromUpper:vector(packetBytes) ETV
attr interpolationmode none
attr recordingmode vector(packetBytes)
attr title "packets received from upper layer, packetBytes"
vector 281 TrackingSimulation.sensor[1].wlan[0].mac packetReceivedFromLower:vector(packetBytes) ETV
attr interpolationmode none
attr recordingmode vector(packetBytes)
attr title "packets received from lower layer, packetBytes"
vector 282 TrackingSimulation.sensor[1].wlan[0].mac packetDrop:vector(packetBytes) ETV
attr interpolationmode none
attr recordingmode vector(packetBytes)
attr source packetDropped
attr title "packet drops, packetBytes"
vector 283 TrackingSimulation.sensor[1].wlan[0].mac packetDropIncorrectlyReceived:vector(packetBytes) ETV
attr interpolationmode none
attr recordingmode vector(packetBytes)
attr source packetDropReasonIsIncorrectlyReceived(packetDropped)
attr title "packet drops: incorrectly received, packetBytes"
vector 284 TrackingSimulation.sensor[1].wlan[0].mac packetDropNotAddressedToUs:vector(packetBytes) ETV
attr interpolationmode none
attr recordingmode vector(packetBytes)
attr source packetDropReasonIsNotAddressedToUs(packetDropped)
attr title "packet drops: not addressed to us, packetBytes"
vector 285 TrackingSimulation.sensor[1].wlan[0].mac packetDropQueueOverflow:vector(packetBytes) ETV
attr interpolationmode none
attr recordingmode vector(packetBytes)
attr source packetDropReasonIsQueueOverflow(packetDropped)
attr title "packet drops: queue overflow, packetBytes"
vector 286 TrackingSimulation.sensor[1].wlan[0].mac packetDropRetryLimitReached:vector(packetBytes) ETV
attr interpolationmode none
attr recordingmode vector(packetBytes)
attr source packetDropReasonIsRetryLimitReached(packetDropped)
attr title "packet drops: retry limit reached, packetBytes"
vector 287 TrackingSimulation.sensor[1].wlan[0].mac packetDropDuplicateDetected:vector(packetBytes) ETV
attr interpolationmode none
attr recordingmode vector(packetBytes)
attr source packetDropReasonIsDuplicateDetected(packetDropped)
attr title "packet drops: duplicate detected, packetBytes"
vector 288 TrackingSimulation.sensor[1].wlan[0].mac packetDropOther:vector(packetBytes) ETV
attr interpolationmode none
attr recordingmode vector(packetBytes)
attr source packetDropReasonIsOther(packetDropped)
attr title "packet drops: other, packetBytes"
vector 289 TrackingSimulation.sensor[1].wlan[0].radio radioMode:vector ETV
attr enum OFF,SLEEP,RECEIVER,TRANSMITTER,TRANSCEIVER,SWITCHING
attr interpolationmode sample-hold
attr recordingmode vector
attr source radioModeChanged
attr title "Radio mode"
attr type enum
vector 290 TrackingSimulation.sensor[1].wlan[0].radio receptionState:vector ETV
attr enum UNDEFINED,IDLE,BUSY,RECEIVING
attr interpolationmode sample-hold
attr recordingmode vector
attr source receptionStateChanged
attr title "Radio reception state"
attr type enum
vector 291 TrackingSimulation.sensor[1].wlan[0].radio transmissionState:vector ETV
attr enum UNDEFINED,IDLE,TRANSMITTING
attr interpolationmode sample-hold
attr recordingmode vector
attr source transmissionStateChanged
attr title "Radio transmission state"
attr type enum
vector 292 TrackingSimulation.sensor[1].wlan[0].radio radioChannel:vector ETV
attr interpolationmode sample-hold
attr recordingmode vector
attr source radioChannelChanged
attr title "Radio channel"
vector 293 TrackingSimulation.sensor[1].wlan[0] packetDropInterfaceDown:vector(packetBytes) ETV
attr interpolationmode none
attr recordingmode vector(packetBytes)
attr source packetDropReasonIsInterfaceDown(packetDropped)
attr title "packet drops: interface down, packetBytes"
vector 294 TrackingSimulation.sensor[1].wlan[0] packetDropNoCarrier:vector(packetBytes) ETV
attr interpolationmode none
attr recordingmode vector(packetBytes)
attr source packetDropReasonIsNoCarrier(packetDropped)
attr title "packet drops: no carrier, packetBytes"
vector 295 TrackingSimulation.sensor[1].ipv4.ip packetDropAddressResolutionFailed:vector(packetBytes) ETV
attr interpolationmode none
attr recordingmode vector(packetBytes)
attr source packetDropReasonIsAddressResolutionFailed(packetDropped)
attr title "packet drop: address resolution failed, packetBytes"
[...]
530	96	0.105679074232	1
530	144	0.131773000229	3
530	189	0.131815000229	1
530	220	0.140565586677	3
530	257	0.140607586677	1
530	307	0.144903417975	3
532	0	0	0
532	34	0.079366683424	0
546	0	0	0
547	0	0	0
548	0	0	0
558	23	0.055899703363	1
561	0	0	0
561	0	0	0
561	0	0	0
561	0	0	0
561	0	0	0
562	0	0	0
562	0	0	0
562	0	0	0
562	0	0	0
562	0	0	0
573	0	0	0
573	0	0	0
575	0	0	0
575	0	0	0
576	0	0	0
576	0	0	0
576	50	0.105636939406	0
576	50	0.105636939406	0
576	68	0.105678939406	0
576	68	0.105678939406	0
576	134	0.13177286665	0
576	134	0.13177286665	0
576	159	0.13181486665	0
576	159	0.13181486665	0
576	211	0.14056545198	0
576	211	0.14056545198	0
576	229	0.14060745198	0
576	229	0.14060745198	0
576	297	0.144903284072	0
576	297	0.144903284072	0
578	0	0	31
585	78	0.105678939406	40
585	169	0.13181486665	40
585	239	0.14060745198	40
587	78	0.105678939406	40
587	169	0.13181486665	40
587	239	0.14060745198	40
588	78	0.105678939406	40
588	169	0.13181486665	40
588	239	0.14060745198	40
590	78	0.105678939406	40
590	169	0.13181486665	40
590	239	0.14060745198	40
595	0	0	0
595	0	0	0
601	78	0.105678939406	40
601	169	0.13181486665	40
601	239	0.14060745198	40
609	0	0	0
609	0	0	0
609	0	0	2
610	0	0	1
610	50	0.105636939406	3
610	68	0.105678939406	1
610	134	0.13177286665	3
610	159	0.13181486665	1
610	211	0.14056545198	3
610	229	0.14060745198	1
610	297	0.144903284072	3
612	0	0	0
612	26	0.055899703363	0
626	0	0	0
627	0	0	0
628	0	0	0
636	0	0	0
636	0	0	0
636	0	0	0
636	0	0	0
636	0	0	0
637	0	0	0
637	0	0	0
637	0	0	0
637	0	0	0
637	0	0	0
648	0	0	0
648	0	0	0
650	0	0	0
650	0	0	0
651	0	0	0
651	0	0	0
651	51	0.105636939406	0
651	51	0.105636939406	0
651	69	0.105678939406	0
651	69	0.105678939406	0
651	135	0.13177286665	0
651	135	0.13177286665	0
651	160	0.13181486665	0
651	160	0.13181486665	0
651	212	0.14056545198	0
651	212	0.14056545198	0
651	230	0.14060745198	0
651	230	0.14060745198	0
651	298	0.144903284072	0
651	298	0.144903284072	0
653	0	0	31
660	79	0.105678939406	40
660	170	0.13181486665	40
660	240	0.14060745198	40
662	79	0.105678939406	40
662	170	0.13181486665	40
662	240	0.14060745198	40
663	79	0.105678939406	40
663	170	0.13181486665	40
663	240	0.14060745198	40
665	79	0.105678939406	40
665	170	0.13181486665	40
665	240	0.14060745198	40
670	0	0	0
670	0	0	0
676	79	0.105678939406	40
676	170	0.13181486665	40
676	240	0.14060745198	40
684	0	0	0
684	0	0	0
684	0	0	2
685	0	0	1
685	51	0.105636939406	3
685	69	0.105678939406	1
685	135	0.13177286665	3
685	160	0.13181486665	1
685	212	0.14056545198	3
685	230	0.14060745198	1
685	298	0.144903284072	3
687	0	0	0
701	0	0	0
702	0	0	0
703	0	0	0
711	0	0	0
711	0	0	0
711	0	0	0
711	0	0	0
711	0	0	0
712	0	0	0
712	0	0	0
712	0	0	0
712	0	0	0
712	0	0	0
723	0	0	0
723	0	0	0
725	0	0	0
725	0	0	0
726	0	0	0
726	0	0	0
726	52	0.105636939406	0
726	52	0.105636939406	0
726	70	0.105678939406	0
726	70	0.105678939406	0
726	136	0.13177286665	0
726	136	0.13177286665	0
726	161	0.13181486665	0
726	161	0.13181486665	0
726	213	0.14056545198	0
726	213	0.14056545198	0
726	231	0.14060745198	0
726	231	0.14060745198	0
726	299	0.144903284072	0
726	299	0.144903284072	0
728	0	0	31
735	80	0.105678939406	40
735	171	0.13181486665	40
735	241	0.14060745198	40
737	80	0.105678939406	40
737	171	0.13181486665	40
737	241	0.14060745198	40
738	80	0.105678939406	40
738	171	0.13181486665	40
738	241	0.14060745198	40
740	80	0.105678939406	40
740	171	0.13181486665	40
740	241	0.14060745198	40
745	0	0	0
745	0	0	0
751	80	0.105678939406	40
751	171	0.13181486665	40
751	241	0.14060745198	40
759	0	0	0
759	0	0	0
759	0	0	2
760	0	0	1
760	52	0.105636939406	3
760	70	0.105678939406	1
760	136	0.13177286665	3
760	161	0.13181486665	1
760	213	0.14056545198	3
760	231	0.14060745198	1
760	299	0.144903284072	3
762	0	0	0
776	0	0	0
777	0	0	0
778	0	0	0
783	201	0.136845100787	1
786	0	0	0
786	0	0	0
786	0	0	0
786	0	0	0
786	0	0	0
787	0	0	0
787	0	0	0
787	0	0	0
787	0	0	0
787	0	0	0
798	0	0	0
798	0	0	0
800	0	0	0
800	0	0	0
801	0	0	0
801	0	0	0
801	53	0.105636939406	0
801	53	0.105636939406	0
801	71	0.105678939406	0
801	71	0.105678939406	0
801	137	0.13177286665	0
801	137	0.13177286665	0
801	162	0.13181486665	0
801	162	0.13181486665	0
801	214	0.14056545198	0
801	214	0.14056545198	0
801	232	0.14060745198	0
801	232	0.14060745198	0
801	300	0.144903284072	0
801	300	0.144903284072	0
803	0	0	31
810	81	0.105678939406	40
810	172	0.13181486665	40
810	242	0.14060745198	40
812	81	0.105678939406	40
812	172	0.13181486665	40
812	242	0.14060745198	40
813	81	0.105678939406	40
813	172	0.13181486665	40
813	242	0.14060745198	40
815	81	0.105678939406	40
815	172	0.13181486665	40
815	242	0.14060745198	40
820	0	0	0
820	0	0	0
826	81	0.105678939406	40
826	172	0.13181486665	40
826	242	0.14060745198	40
834	0	0	0
834	0	0	0
834	0	0	2
835	0	0	1
835	53	0.105636939406	3
835	71	0.105678939406	1
835	137	0.13177286665	3
835	162	0.13181486665	1
835	214	0.14056545198	3
835	232	0.14060745198	1
835	300	0.144903284072	3
837	0	0	0
837	204	0.136845100787	0
851	0	0	0
852	0	0	0
853	0	0	0
858	27	0.064965107013	1
861	0	0	0
861	0	0	0
861	0	0	0
861	0	0	0
861	0	0	0
862	0	0	0
862	0	0	0
862	0	0	0
862	0	0	0
862	0	0	0
873	0	0	0
873	0	0	0
875	0	0	0
875	0	0	0
876	0	0	0
876	0	0	0
876	54	0.105636939406	0
876	54	0.105636939406	0
876	72	0.105678939406	0
876	72	0.105678939406	0
876	138	0.13177286665	0
876	138	0.13177286665	0
876	163	0.13181486665	0
876	163	0.13181486665	0
876	215	0.14056545198	0
876	215	0.14056545198	0
876	233	0.14060745198	0
876	233	0.14060745198	0
876	301	0.144903284072	0
876	301	0.144903284072	0
878	0	0	31
885	82	0.105678939406	40
885	173	0.13181486665	40
885	243	0.14060745198	40
887	82	0.105678939406	40
887	173	0.13181486665	40
887	243	0.14060745198	40
888	82	0.105678939406	40
888	173	0.13181486665	40
888	243	0.14060745198	40
890	82	0.105678939406	40
890	173	0.13181486665	40
890	243	0.14060745198	40
895	0	0	0
895	0	0	0
901	82	0.105678939406	40
901	173	0.13181486665	40
901	243	0.14060745198	40
909	0	0	0
909	0	0	0
909	0	0	2
910	0	0	1
910	54	0.105636939406	3
910	72	0.105678939406	1
910	138	0.13177286665	3
910	163	0.13181486665	1
910	215	0.14056545198	3
910	233	0.14060745198	1
910	301	0.144903284072	3
912	0	0	0
912	30	0.064965107013	0
926	0	0	0
927	0	0	0
928	0	0	0
936	0	0	0
936	0	0	0
936	0	0	0
936	0	0	0
936	0	0	0
937	0	0	0
937	0	0	0
937	0	0	0
937	0	0	0
937	0	0	0
948	0	0	0
948	0	0	0
950	0	0	0
950	0	0	0
951	0	0	0
951	0	0	0
951	55	0.105636939406	0
951	55	0.105636939406	0
951	73	0.105678939406	0
951	73	0.105678939406	0
951	139	0.13177286665	0
951	139	0.13177286665	0
951	164	0.13181486665	0
951	164	0.13181486665	0
951	216	0.14056545198	0
951	216	0.14056545198	0
951	234	0.14060745198	0
951	234	0.14060745198	0
951	302	0.144903284072	0
951	302	0.144903284072	0
953	0	0	31
960	83	0.105678939406	40
960	174	0.13181486665	40
960	244	0.14060745198	40
962	83	0.105678939406	40
962	174	0.13181486665	40
962	244	0.14060745198	40
963	83	0.105678939406	40
963	174	0.13181486665	40
963	244	0.14060745198	40
965	83	0.105678939406	40
965	174	0.13181486665	40
965	244	0.14060745198	40
970	0	0	0
970	0	0	0
976	83	0.105678939406	40
976	174	0.13181486665	40
976	244	0.14060745198	40
984	0	0	0
984	0	0	0
984	0	0	2
985	0	0	1
985	55	0.105636939406	3
985	73	0.105678939406	1
985	139	0.13177286665	3
985	164	0.13181486665	1
985	216	0.14056545198	3
985	234	0.14060745198	1
985	302	0.144903284072	3
987	0	0	0
1001	0	0	0
1002	0	0	0
1003	0	0	0
1008	15	0.04056545198	1
1011	0	0	0
1011	0	0	0
1011	0	0	0
1011	0	0	0
1011	0	0	0
1011	206	0.14056545198	1
1011	208	0.14056545198	0
1012	0	0	0
1012	0	0	0
1012	0	0	0
1012	0	0	0
1012	0	0	0
1012	206	0.14056545198	320
1012	208	0.14056545198	0
1013	208	0.14056545198	0
1014	206	0.14056545198	320
1015	206	0.1	0
1016	208	0.14056545198	320
1017	208	0.1	0
1022	228	0.14060745198	4.2e-05
1023	0	0	0
1023	0	0	0
1023	208	0.14056545198	1
1023	228	0.14060745198	0
1024	206	0.14056545198	20
1025	0	0	0
1025	0	0	0
1025	206	0.14056545198	1
1025	207	0.14056545198	0
1026	0	0	0
1026	0	0	0
1026	56	0.105636939406	0
1026	56	0.105636939406	0
1026	74	0.105678939406	0
1026	74	0.105678939406	0
1026	140	0.13177286665	0
1026	140	0.13177286665	0
1026	165	0.13181486665	0
1026	165	0.13181486665	0
1026	206	0.14056545198	0
1026	206	0.14056545198	2
1026	207	0.14056545198	2
1026	207	0.14056545198	0
1026	209	0.14056545198	0
1026	209	0.14056545198	0
1026	238	0.14060745198	0
1026	238	0.14060745198	0
1026	303	0.144903284072	0
1026	303	0.144903284072	0
1028	0	0	31
1029	228	0.14060745198	40
1031	228	0.14060745198	40
1032	228	0.14060745198	40
1034	228	0.14060745198	40
1035	84	0.105678939406	40
1035	175	0.13181486665	40
1037	84	0.105678939406	40
1037	175	0.13181486665	40
1038	84	0.105678939406	40
1038	175	0.13181486665	40
1040	84	0.105678939406	40
1040	175	0.13181486665	40
1045	0	0	0
1045	0	0	0
1045	208	0.14056545198	1
1045	228	0.14060745198	0
1046	208	0.14056545198	24000000
1049	208	0.14056545198	40
1051	84	0.105678939406	40
1051	175	0.13181486665	40
1059	0	0	0
1059	0	0	0
1059	0	0	2
1059	209	0.14056545198	3
1059	238	0.14060745198	2
1060	0	0	1
1060	56	0.105636939406	3
1060	74	0.105678939406	1
1060	140	0.13177286665	3
1060	165	0.13181486665	1
1060	209	0.14056545198	0
1060	238	0.14060745198	1
1060	303	0.144903284072	3
1061	209	0.14056545198	1
1061	210	0.14056545198	2
1061	228	0.14060745198	1
1061	238	0.14060745198	0
1062	0	0	0
1062	18	0.04056545198	0
1076	0	0	0
1077	0	0	0
1078	0	0	0
1083	7	0.005636939406	1
1086	0	0	0
1086	0	0	0
1086	0	0	0
1086	0	0	0
1086	0	0	0
1086	45	0.105636939406	1
1086	47	0.105636939406	0
1087	0	0	0
1087	0	0	0
1087	0	0	0
1087	0	0	0
1087	0	0	0
1087	45	0.105636939406	320
1087	47	0.105636939406	0
1088	47	0.105636939406	0
1089	45	0.105636939406	320
1090	45	0.1	0
1091	47	0.105636939406	320
1092	47	0.1	0
1097	67	0.105678939406	4.2e-05
1098	0	0	0
1098	0	0	0
1098	47	0.105636939406	1
1098	67	0.105678939406	0
1099	45	0.105636939406	15
1100	0	0	0
1100	0	0	0
1100	45	0.105636939406	1
1100	46	0.105636939406	0
1101	0	0	0
1101	0	0	0
1101	45	0.105636939406	0
1101	45	0.105636939406	2
1101	46	0.105636939406	2
1101	46	0.105636939406	0
1101	48	0.105636939406	0
1101	48	0.105636939406	0
1101	77	0.105678939406	0
1101	77	0.105678939406	0
1101	141	0.13177286665	0
1101	141	0.13177286665	0
1101	166	0.13181486665	0
1101	166	0.13181486665	0
1101	217	0.14056545198	0
1101	217	0.14056545198	0
1101	235	0.14060745198	0
1101	235	0.14060745198	0
1101	304	0.144903284072	0
1101	304	0.144903284072	0
1103	0	0	31
1104	67	0.105678939406	40
1106	67	0.105678939406	40
1107	67	0.105678939406	40
1109	67	0.105678939406	40
1110	176	0.13181486665	40
1110	245	0.14060745198	40
1112	176	0.13181486665	40
1112	245	0.14060745198	40
1113	176	0.13181486665	40
1113	245	0.14060745198	40
1115	176	0.13181486665	40
1115	245	0.14060745198	40
1120	0	0	0
1120	0	0	0
1120	47	0.105636939406	1
1120	67	0.105678939406	0
1121	47	0.105636939406	24000000
1124	47	0.105636939406	40
1126	176	0.13181486665	40
1126	245	0.14060745198	40
1134	0	0	0
1134	0	0	0
1134	0	0	2
1134	48	0.105636939406	3
1134	77	0.105678939406	2
1135	0	0	1
1135	48	0.105636939406	0
1135	77	0.105678939406	1
1135	141	0.13177286665	3
1135	166	0.13181486665	1
1135	217	0.14056545198	3
1135	235	0.14060745198	1
1135	304	0.144903284072	3
1136	48	0.105636939406	1
1136	49	0.105636939406	2
1136	67	0.105678939406	1
1136	77	0.105678939406	0
1137	0	0	0
1137	10	0.005636939406	0
1151	0	0	0
1152	0	0	0
1153	0	0	0
1158	35	0.097242301237	1
1161	0	0	0
1161	0	0	0
1161	0	0	0
1161	0	0	0
1161	0	0	0
1162	0	0	0
1162	0	0	0
1162	0	0	0
1162	0	0	0
1162	0	0	0
1173	0	0	0
1173	0	0	0
1175	0	0	0
1175	0	0	0
1176	0	0	0
1176	0	0	0
1176	57	0.105636939406	0
1176	57	0.105636939406	0
1176	75	0.105678939406	0
1176	75	0.105678939406	0
1176	142	0.13177286665	0
1176	142	0.13177286665	0
1176	167	0.13181486665	0
1176	167	0.13181486665	0
1176	218	0.14056545198	0
1176	218	0.14056545198	0
1176	236	0.14060745198	0
1176	236	0.14060745198	0
1176	305	0.144903284072	0
1176	305	0.144903284072	0
1178	0	0	31
1185	85	0.105678939406	40
1185	177	0.13181486665	40
1185	246	0.14060745198	40
1187	85	0.105678939406	40
1187	177	0.13181486665	40
1187	246	0.14060745198	40
1188	85	0.105678939406	40
1188	177	0.13181486665	40
1188	246	0.14060745198	40
1190	85	0.105678939406	40
1190	177	0.13181486665	40
1190	246	0.14060745198	40
1195	0	0	0
1195	0	0	0
1201	85	0.105678939406	40
1201	177	0.13181486665	40
1201	246	0.14060745198	40
1209	0	0	0
1209	0	0	0
1209	0	0	2
1210	0	0	1
1210	57	0.105636939406	3
1210	75	0.105678939406	1
1210	142	0.13177286665	3
1210	167	0.13181486665	1
1210	218	0.14056545198	3
1210	236	0.14060745198	1
1210	305	0.144903284072	3
1212	0	0	0
1212	38	0.097242301237	0
1226	0	0	0
1227	0	0	0
1228	0	0	0
1236	0	0	0
1236	0	0	0
1236	0	0	0
1236	0	0	0
1236	0	0	0
1237	0	0	0
1237	0	0	0
1237	0	0	0
1237	0	0	0
1237	0	0	0
1248	0	0	0
1248	0	0	0
1250	0	0	0
1250	0	0	0
1251	0	0	0
1251	0	0	0
1251	58	0.105636939406	0
1251	58	0.105636939406	0
1251	76	0.105678939406	0
1251	76	0.105678939406	0
1251	143	0.13177286665	0
1251	143	0.13177286665	0
1251	168	0.13181486665	0
1251	168	0.13181486665	0
1251	219	0.14056545198	0
1251	219	0.14056545198	0
1251	237	0.14060745198	0
1251	237	0.14060745198	0
1251	306	0.144903284072	0
1251	306	0.144903284072	0
1253	0	0	31
1260	86	0.105678939406	40
1260	178	0.13181486665	40
1260	247	0.14060745198	40
1262	86	0.105678939406	40
1262	178	0.13181486665	40
1262	247	0.14060745198	40
1263	86	0.105678939406	40
1263	178	0.13181486665	40
1263	247	0.14060745198	40
1265	86	0.105678939406	40
1265	178	0.13181486665	40
1265	247	0.14060745198	40
1270	0	0	0
1270	0	0	0
1276	86	0.105678939406	40
1276	178	0.13181486665	40
1276	247	0.14060745198	40
1284	0	0	0
1284	0	0	0
1284	0	0	2
1285	0	0	1
1285	58	0.105636939406	3
1285	76	0.105678939406	1
1285	143	0.13177286665	3
1285	168	0.13181486665	1
1285	219	0.14056545198	3
1285	237	0.14060745198	1
1285	306	0.144903284072	3
1287	0	0	0
1301	0	0	0
1302	0	0	0
1303	0	0	0
1308	19	0.044902459136	1
1311	0	0	0
1311	0	0	0
1311	0	0	0
1311	0	0	0
1311	0	0	0
1311	287	0.144902459136	1
1311	289	0.144902459136	0
1312	0	0	0
1312	0	0	0
1312	0	0	0
1312	0	0	0
1312	0	0	0
1312	287	0.144902459136	320
1312	289	0.144902459136	0
1313	289	0.144902459136	0
1314	287	0.144902459136	320
1315	287	0.1	0
1316	289	0.144902459136	320
1317	289	0.1	0
1322	309	0.144944459136	4.2e-05
1323	0	0	0
1323	0	0	0
1323	289	0.144902459136	1
1323	309	0.144944459136	0
1324	287	0.144902459136	3
1325	0	0	0
1325	0	0	0
1325	287	0.144902459136	1
1325	288	0.144902459136	0
1326	0	0	0
1326	0	0	0
1326	63	0.105637764342	0
1326	63	0.105637764342	0
1326	108	0.105679764342	0
1326	108	0.105679764342	0
1326	131	0.131772523005	0
1326	131	0.131772523005	0
1326	150	0.131814523005	0
1326	150	0.131814523005	0
1326	224	0.140566276916	0
1326	224	0.140566276916	0
1326	269	0.140608276916	0
1326	269	0.140608276916	0
1326	287	0.144902459136	0
1326	287	0.144902459136	2
1326	288	0.144902459136	2
1326	288	0.144902459136	0
1326	290	0.144902459136	0
1326	290	0.144902459136	0
1326	310	0.144944459136	0
1326	310	0.144944459136	0
1328	0	0	31
1329	309	0.144944459136	40
1331	309	0.144944459136	40
1332	309	0.144944459136	40
1334	309	0.144944459136	40
1335	109	0.105679764342	40
1335	151	0.131814523005	40
1335	270	0.140608276916	40
1337	109	0.105679764342	40
1337	151	0.131814523005	40
1337	270	0.140608276916	40
1338	109	0.105679764342	40
1338	151	0.131814523005	40
1338	270	0.140608276916	40
1340	109	0.105679764342	40
1340	151	0.131814523005	40
1340	270	0.140608276916	40
1345	0	0	0
1345	0	0	0
1345	289	0.144902459136	1
1345	309	0.144944459136	0
1346	289	0.144902459136	24000000
1349	289	0.144902459136	40
1351	109	0.105679764342	40
1351	151	0.131814523005	40
1351	270	0.140608276916	40
1359	0	0	0
1359	0	0	0
1359	0	0	2
1359	290	0.144902459136	3
1359	310	0.144944459136	2
1360	0	0	1
1360	63	0.105637764342	3
1360	108	0.105679764342	1
1360	131	0.131772523005	3
1360	150	0.131814523005	1
1360	224	0.140566276916	3
1360	269	0.140608276916	1
1360	290	0.144902459136	0
1360	310	0.144944459136	1
1361	290	0.144902459136	1
1361	291	0.144902459136	2
1361	309	0.144944459136	1
1361	310	0.144944459136	0
1362	0	0	0
1362	22	0.044902459136	0
1376	0	0	0
1377	0	0	0
1378	0	0	0
11	310	0.1	0
11	310	0.144944678638	0
13	310	0.1	0
13	310	0.144944678638	0
16	310	0.1	0
16	310	0.144944678638	0
17	310	0.1	0
17	310	0.144944678638	0
86	310	0.1	0
86	310	0.144944678638	0
88	310	0.1	0
88	310	0.144944678638	0
91	310	0.1	0
91	310	0.144944678638	0
92	310	0.1	0
92	310	0.144944678638	0
151	310	0.1	0
151	310	0.144944678638	0
165	310	0.1	0
165	310	0.144944678638	0
167	310	0.1	0
167	310	0.144944678638	0
170	310	0.1	0
170	310	0.144944678638	0
171	310	0.1	0
171	310	0.144944678638	0
230	310	0.1	0
230	310	0.144944678638	0
245	310	0.144944678638	7119.8640127654
247	310	0.144944678638	7119.8640127654
250	310	0.1	0
250	310	0.144944678638	0
251	310	0.1	0
251	310	0.144944678638	0
310	310	0.1	0
310	310	0.144944678638	0
325	310	0.1	0
325	310	0.144944678638	0
327	310	0.1	0
327	310	0.144944678638	0
330	310	0.1	0
330	310	0.144944678638	0
331	310	0.1	0
331	310	0.144944678638	0
390	310	0.1	0
390	310	0.144944678638	0
405	310	0.1	0
405	310	0.144944678638	0
407	310	0.1	0
407	310	0.144944678638	0
410	310	0.1	0
410	310	0.144944678638	0
411	310	0.1	0
411	310	0.144944678638	0
470	310	0.1	0
470	310	0.144944678638	0
485	310	0.1	0
485	310	0.144944678638	0
487	310	0.1	0
487	310	0.144944678638	0
490	310	0.1	0
490	310	0.144944678638	0
491	310	0.1	0
491	310	0.144944678638	0
550	310	0.1	0
550	310	0.144944678638	0
565	310	0.1	0
565	310	0.144944678638	0
567	310	0.1	0
567	310	0.144944678638	0
570	310	0.1	0
570	310	0.144944678638	0
571	310	0.1	0
571	310	0.144944678638	0
640	310	0.1	0
640	310	0.144944678638	0
642	310	0.1	0
642	310	0.144944678638	0
645	310	0.1	0
645	310	0.144944678638	0
646	310	0.1	0
646	310	0.144944678638	0
715	310	0.1	0
715	310	0.144944678638	0
717	310	0.1	0
717	310	0.144944678638	0
720	310	0.1	0
720	310	0.144944678638	0
721	310	0.1	0
721	310	0.144944678638	0
790	310	0.1	0
790	310	0.144944678638	0
792	310	0.1	0
792	310	0.144944678638	0
795	310	0.1	0
795	310	0.144944678638	0
796	310	0.1	0
796	310	0.144944678638	0
865	310	0.1	0
865	310	0.144944678638	0
867	310	0.1	0
867	310	0.144944678638	0
870	310	0.1	0
870	310	0.144944678638	0
871	310	0.1	0
871	310	0.144944678638	0
940	310	0.1	0
940	310	0.144944678638	0
942	310	0.1	0
942	310	0.144944678638	0
945	310	0.1	0
945	310	0.144944678638	0
946	310	0.1	0
946	310	0.144944678638	0
1015	310	0.144944678638	7119.8640127654
1017	310	0.144944678638	7119.8640127654
1020	310	0.1	0
1020	310	0.144944678638	0
1021	310	0.1	0
1021	310	0.144944678638	0
1090	310	0.144944678638	7119.8640127654
1092	310	0.144944678638	7119.8640127654
1095	310	0.1	0
1095	310	0.144944678638	0
1096	310	0.1	0
1096	310	0.144944678638	0
1165	310	0.1	0
1165	310	0.144944678638	0
1167	310	0.1	0
1167	310	0.144944678638	0
1170	310	0.1	0
1170	310	0.144944678638	0
1171	310	0.1	0
1171	310	0.144944678638	0
1240	310	0.1	0
1240	310	0.144944678638	0
1242	310	0.1	0
1242	310	0.144944678638	0
1245	310	0.1	0
1245	310	0.144944678638	0
1246	310	0.1	0
1246	310	0.144944678638	0
1315	310	0.144944678638	7119.8640127654
1317	310	0.144944678638	7119.8640127654
1320	310	0.1	0
1320	310	0.144944678638	0
1321	310	0.1	0
1321	310	0.144944678638	0
1380	310	0.1	0
1380	310	0.144944678638	0

