file 394214 1747598673                                          
version 3
run General-0-20250518-23:03:36-18996
attr configname General
attr datetime 20250518-23:03:36
attr datetimef 20250518-230336
attr experiment General
attr inifile omnetpp.ini
attr iterationvars ""
attr iterationvarsd ""
attr iterationvarsf ""
attr measurement ""
attr network ned.TrackingSimulation
attr processid 18996
attr repetition 0
attr replication #0
attr resultdir results
attr runnumber 0
attr seedset 0
config image-path ../inet-master/inet-master/images
config network ned.TrackingSimulation
config sim-time-limit 100s
config *.mobility "\"MovingMobilityBase\""
config eventlog-file results/simulation-events.elog
config cmdenv-output-file results/simulation-results.csv
config *.server.app[0].logFile "\"results/tracking_log.csv\""
config **.udpApp[0].typename SensorTrackingApp
config *.visualizerType "\"IntegratedVisualizer\""
config *.radioMedium.backgroundNoise false
config *.radioMedium.pathLossAlpha 2.1
config *.radioMedium.carrierFrequency "2.4 GHz"
config *.radioMedium.transmissionPower 10mW
config *.wlan[*].typename Ieee80211WlanInterface
config *.wlan[*].mac.queueLength 10
config *.configurator.addStaticRoutes true
config *.configurator.routingFile "\"\""
config *.sensor[0].numApps 1
config *.sensor[0].app[0].typename SensorTrackingApp
config *.sensor[0].app[0].destAddress "\"server\""
config *.sensor[0].app[0].destPort 10000
config *.sensor[0].app[0].startTime 1s
config *.sensor[0].app[0].sendInterval 2s
config *.sensor[1..4].numApps 1
config *.sensor[1..4].app[0].typename SensorTrackingApp
config *.sensor[1..4].app[0].destAddress "\"server\""
config *.sensor[1..4].app[0].destPort 10000
config *.sensor[1..4].app[0].startTime 1s
config *.sensor[1..4].app[0].sendInterval "uniform(2s, 5s)"
config *.server.numApps 1
config *.server.app[0].typename TrackingLoggerApp
config *.server.app[0].localPort 10000
config *.server.app[0].interfaceTable "\"interfaceTable\""
config *.monitoringCenter.numApps 1
config *.monitoringCenter.app[0].typename MonitoringCenterApp
config *.monitoringCenter.app[0].localPort 20000
config *.client.mobility.typename StationaryMobility
config *.client.mobility.x 150m
config *.client.mobility.y 150m
config *.server.mobility.typename StationaryMobility
config *.server.mobility.x 95m
config *.server.mobility.y 269m
config *.monitoringCenter.mobility.typename StationaryMobility
config *.monitoringCenter.mobility.x 323m
config *.monitoringCenter.mobility.y 278m
config *.sensor[*].mobility.typename RandomWaypointMobility
config *.sensor[*].mobility.speed "uniform(1mps, 5mps)"
config *.sensor[*].mobility.waitTime "uniform(1s, 3s)"
config *.sensor[*].mobility.constraintAreaMinX 0m
config *.sensor[*].mobility.constraintAreaMinY 0m
config *.sensor[*].mobility.constraintAreaMaxX 800m
config *.sensor[*].mobility.constraintAreaMaxY 600m
config *.sensor[*].mobility.constraintAreaMinZ 0m
config *.sensor[*].mobility.constraintAreaMaxZ 0m
config *.target[*].mobility.typename StationaryMobility
config *.target[*].mobility.x "400m + index * 10m"
config *.target[*].mobility.y 50m
config *.playUnderWater false
config *.updateDisplay true

vector 0 TrackingSimulation.client.lo[0].lo rcvdPkFromHl:vector(packetBytes) ETV
attr interpolationmode none
attr recordingmode vector(packetBytes)
attr source packetReceivedFromUpper
attr title "packets received from higher layer, packetBytes"
vector 1 TrackingSimulation.client.lo[0].lo passedUpPk:vector(packetBytes) ETV
attr interpolationmode none
attr recordingmode vector(packetBytes)
attr source packetSentToUpper
attr title "packets passed to higher layer, packetBytes"
vector 2 TrackingSimulation.client.lo[0] packetDropInterfaceDown:vector(packetBytes) ETV
attr interpolationmode none
attr recordingmode vector(packetBytes)
attr source packetDropReasonIsInterfaceDown(packetDropped)
attr title "packet drops: interface down, packetBytes"
vector 3 TrackingSimulation.client.lo[0] packetDropNoCarrier:vector(packetBytes) ETV
attr interpolationmode none
attr recordingmode vector(packetBytes)
attr source packetDropReasonIsNoCarrier(packetDropped)
attr title "packet drops: no carrier, packetBytes"
vector 4 TrackingSimulation.client.wlan[0].agent sentRequest:vector ETV
attr recordingmode vector
attr title "sent requests"
vector 5 TrackingSimulation.client.wlan[0].agent acceptConfirm:vector ETV
attr recordingmode vector
attr title "accepted confirms"
vector 6 TrackingSimulation.client.wlan[0].agent dropConfirm:vector ETV
attr recordingmode vector
attr title "dropped confirms"
vector 7 TrackingSimulation.client.wlan[0].mac.dcf.channelAccess.pendingQueue queueLength:vector ETV
attr autoWarmupFilter false
attr interpolationmode sample-hold
attr recordingmode vector
attr source "warmup(atomic(constant0(packetPushEnded) + count(packetPushStarted) - count(packetPulled) - count(packetRemoved) - count(packetDropped)))"
attr title "queue length"
attr unit pk
vector 8 TrackingSimulation.client.wlan[0].mac.dcf.channelAccess.pendingQueue queueBitLength:vector ETV
attr autoWarmupFilter false
attr interpolationmode sample-hold
attr recordingmode vector
attr source "warmup(atomic(constant0(packetPushEnded) + sum(packetLength(packetPushStarted)) - sum(packetLength(packetPulled)) - sum(packetLength(packetRemoved)) - sum(packetLength(packetDropped))))"
attr title "queue bit length"
attr unit b
vector 9 TrackingSimulation.client.wlan[0].mac.dcf.channelAccess.pendingQueue queueingTime:vector ETV
attr interpolationmode none
attr recordingmode vector
attr source queueingTime(packetPulled)
attr title "queueing times"
attr unit s
vector 10 TrackingSimulation.client.wlan[0].mac.dcf.channelAccess.pendingQueue incomingPacketLengths:vector ETV
attr interpolationmode none
attr recordingmode vector
attr source packetLength(packetPushStarted)
attr title "incoming packet lengths"
attr unit b
vector 11 TrackingSimulation.client.wlan[0].mac.dcf.channelAccess.pendingQueue incomingDataRate:vector ETV
attr interpolationmode linear
attr recordingmode vector
attr source throughput(packetPushStarted)
attr title "incoming datarate"
attr unit bps
vector 12 TrackingSimulation.client.wlan[0].mac.dcf.channelAccess.pendingQueue outgoingPacketLengths:vector ETV
attr interpolationmode none
attr recordingmode vector
attr source packetLength(packetPulled)
attr title "outgoing packet lengths"
attr unit b
vector 13 TrackingSimulation.client.wlan[0].mac.dcf.channelAccess.pendingQueue outgoingDataRate:vector ETV
attr interpolationmode linear
attr recordingmode vector
attr source throughput(packetPulled)
attr title "outgoing datarate"
attr unit bps
vector 14 TrackingSimulation.client.wlan[0].mac.dcf.channelAccess.pendingQueue droppedPacketLengthsQueueOverflow:vector ETV
attr interpolationmode none
attr recordingmode vector
attr source packetLength(packetDropReasonIsQueueOverflow(packetDropped))
attr title "dropped packet lengths: queue overflow"
attr unit b
vector 15 TrackingSimulation.client.wlan[0].mac.dcf.channelAccess.pendingQueue flowQueueingTime:vector ETV
attr interpolationmode none
attr recordingmode vector
attr source queueingTime(demuxFlow(packetPulled))
attr title "flow queueing times"
attr unit s
vector 16 TrackingSimulation.client.wlan[0].mac.dcf.channelAccess.pendingQueue flowIncomingDataRate:vector ETV
attr interpolationmode linear
attr recordingmode vector
attr source throughput(flowPacketLength(demuxFlow(packetPushStarted)))
attr title "flow specific incoming data rate"
attr unit bps
vector 17 TrackingSimulation.client.wlan[0].mac.dcf.channelAccess.pendingQueue flowOutgoingDataRate:vector ETV
attr interpolationmode linear
attr recordingmode vector
attr source throughput(flowPacketLength(demuxFlow(packetPulled)))
attr title "flow specific outgoing data rate"
attr unit bps
vector 18 TrackingSimulation.client.wlan[0].mac.dcf.channelAccess.inProgressFrames queueingTime:vector ETV
attr interpolationmode none
attr recordingmode vector
attr source queueingTime(packetDequeued)
attr title "queueing times"
vector 19 TrackingSimulation.client.wlan[0].mac.dcf.channelAccess.inProgressFrames queueLength:vector ETV
attr autoWarmupFilter false
attr interpolationmode sample-hold
attr recordingmode vector
attr source "warmup(count(packetEnqueued) - count(packetDequeued))"
attr title "queue length"
vector 20 TrackingSimulation.client.wlan[0].mac.dcf.channelAccess.contention backoffPeriodGenerated:vector ETV
attr interpolationmode none
attr recordingmode vector
attr title "backoff periods"
vector 21 TrackingSimulation.client.wlan[0].mac.dcf.channelAccess.contention backoffActive:vector ETV
attr autoWarmupFilter false
attr interpolationmode sample-hold
attr recordingmode vector
attr source warmup(count(backoffStarted)-count(backoffStopped))
attr title "backoff active"
vector 22 TrackingSimulation.client.wlan[0].mac.dcf.channelAccess.contention stateChanged:vector ETV
attr enum IDLE,DEFER,IFS_AND_BACKOFF
attr interpolationmode none
attr recordingmode vector
attr title "contention state changed"
attr type enum
vector 23 TrackingSimulation.client.wlan[0].mac.dcf.recipientMacDataService packetDropDuplicateDetected:vector(packetBytes) ETV
attr interpolationmode none
attr recordingmode vector(packetBytes)
attr source packetDropReasonIsDuplicateDetected(packetDropped)
attr title "packet drops: duplicate detected, packetBytes"
vector 24 TrackingSimulation.client.wlan[0].mac.dcf.recoveryProcedure contentionWindowChanged:vector ETV
attr interpolationmode sample-hold
attr recordingmode vector
attr title "contention window"
vector 25 TrackingSimulation.client.wlan[0].mac.dcf packetSentToPeer:vector(packetBytes) ETV
attr interpolationmode none
attr recordingmode vector(packetBytes)
attr title "packets sent, packetBytes"
vector 26 TrackingSimulation.client.wlan[0].mac.dcf packetSentToPeerUnicast:vector(packetBytes) ETV
attr interpolationmode none
attr recordingmode vector(packetBytes)
attr source ieee80211Unicast(packetSentToPeer)
attr title "packets sent: unicast, packetBytes"
vector 27 TrackingSimulation.client.wlan[0].mac.dcf packetSentToPeerMulticast:vector(packetBytes) ETV
attr interpolationmode none
attr recordingmode vector(packetBytes)
attr source ieee80211Multicast(packetSentToPeer)
attr title "packets sent: multicast, packetBytes"
vector 28 TrackingSimulation.client.wlan[0].mac.dcf packetSentToPeerBroadcast:vector(packetBytes) ETV
attr interpolationmode none
attr recordingmode vector(packetBytes)
attr source ieee80211Broadcast(packetSentToPeer)
attr title "packets sent: broadcast , packetBytes"
vector 29 TrackingSimulation.client.wlan[0].mac.dcf packetSentToPeerWithRetry:vector(packetBytes) ETV
attr interpolationmode none
attr recordingmode vector(packetBytes)
attr source ieee80211Retry(packetSentToPeer)
attr title "packets sent: with retry, packetBytes"
vector 30 TrackingSimulation.client.wlan[0].mac.dcf packetSentToPeerWithoutRetry:vector(packetBytes) ETV
attr interpolationmode none
attr recordingmode vector(packetBytes)
attr source ieee80211NotRetry(packetSentToPeer)
attr title "packets sent: without retry, packetBytes"
vector 31 TrackingSimulation.client.wlan[0].mac.dcf packetReceivedFromPeer:vector(packetBytes) ETV
attr interpolationmode none
attr recordingmode vector(packetBytes)
attr title "packets received, packetBytes"
vector 32 TrackingSimulation.client.wlan[0].mac.dcf packetReceivedFromPeerUnicast:vector(packetBytes) ETV
attr interpolationmode none
attr recordingmode vector(packetBytes)
attr source ieee80211Unicast(packetReceivedFromPeer)
attr title "packets received: unicast, packetBytes"
vector 33 TrackingSimulation.client.wlan[0].mac.dcf packetReceivedFromPeerMulticast:vector(packetBytes) ETV
attr interpolationmode none
attr recordingmode vector(packetBytes)
attr source ieee80211Multicast(packetReceivedFromPeer)
attr title "packets received: multicast, packetBytes"
vector 34 TrackingSimulation.client.wlan[0].mac.dcf packetReceivedFromPeerBroadcast:vector(packetBytes) ETV
attr interpolationmode none
attr recordingmode vector(packetBytes)
attr source ieee80211Broadcast(packetReceivedFromPeer)
attr title "packets received: broadcast, packetBytes"
vector 35 TrackingSimulation.client.wlan[0].mac.dcf packetReceivedFromPeerWithRetry:vector(packetBytes) ETV
attr interpolationmode none
attr recordingmode vector(packetBytes)
attr source ieee80211Retry(packetReceivedFromPeer)
attr title "packets received: with retry, packetBytes"
vector 36 TrackingSimulation.client.wlan[0].mac.dcf packetReceivedFromPeerWithoutRetry:vector(packetBytes) ETV
attr interpolationmode none
attr recordingmode vector(packetBytes)
attr source ieee80211NotRetry(packetReceivedFromPeer)
attr title "packets received: without retry, packetBytes"
vector 37 TrackingSimulation.client.wlan[0].mac.dcf packetDrop:vector(packetBytes) ETV
attr interpolationmode none
attr recordingmode vector(packetBytes)
attr source packetDropped
attr title "packet drops, packetBytes"
vector 38 TrackingSimulation.client.wlan[0].mac.dcf packetDropNotAddressedToUs:vector(packetBytes) ETV
attr interpolationmode none
attr recordingmode vector(packetBytes)
attr source packetDropReasonIsNotAddressedToUs(packetDropped)
attr title "packet drops: not addressed to us, packetBytes"
vector 39 TrackingSimulation.client.wlan[0].mac.dcf packetDropQueueOverflow:vector(packetBytes) ETV
attr interpolationmode none
attr recordingmode vector(packetBytes)
attr source packetDropReasonIsQueueOverflow(packetDropped)
attr title "packet drops: queue overflow, packetBytes"
vector 40 TrackingSimulation.client.wlan[0].mac.dcf packetDropRetryLimitReached:vector(packetBytes) ETV
attr interpolationmode none
attr recordingmode vector(packetBytes)
attr source packetDropReasonIsRetryLimitReached(packetDropped)
attr title "packet drops: retry limit reached, packetBytes"
vector 41 TrackingSimulation.client.wlan[0].mac.dcf frameSequenceActive:vector ETV
attr autoWarmupFilter false
attr interpolationmode sample-hold
attr recordingmode vector
attr source warmup(count(frameSequenceStarted)-count(frameSequenceFinished))
attr title "frame sequence active"
vector 42 TrackingSimulation.client.wlan[0].mac.dcf datarateSelected:vector ETV
attr interpolationmode none
attr recordingmode vector
attr title "datarates selected"
vector 43 TrackingSimulation.client.wlan[0].mac.rx nav:vector ETV
attr interpolationmode linear
attr recordingmode vector
attr source navChanged
attr title "network allocation vector"
vector 44 TrackingSimulation.client.wlan[0].mac packetSentToUpper:vector(packetBytes) ETV
attr interpolationmode none
attr recordingmode vector(packetBytes)
attr title "packets sent to upper layer, packetBytes"
vector 45 TrackingSimulation.client.wlan[0].mac packetSentToLower:vector(packetBytes) ETV
attr interpolationmode none
attr recordingmode vector(packetBytes)
attr title "packets sent to lower layer, packetBytes"
vector 46 TrackingSimulation.client.wlan[0].mac packetReceivedFromUpper:vector(packetBytes) ETV
attr interpolationmode none
attr recordingmode vector(packetBytes)
attr title "packets received from upper layer, packetBytes"
vector 47 TrackingSimulation.client.wlan[0].mac packetReceivedFromLower:vector(packetBytes) ETV
attr interpolationmode none
attr recordingmode vector(packetBytes)
attr title "packets received from lower layer, packetBytes"
vector 48 TrackingSimulation.client.wlan[0].mac packetDrop:vector(packetBytes) ETV
attr interpolationmode none
attr recordingmode vector(packetBytes)
attr source packetDropped
attr title "packet drops, packetBytes"
vector 49 TrackingSimulation.client.wlan[0].mac packetDropIncorrectlyReceived:vector(packetBytes) ETV
attr interpolationmode none
attr recordingmode vector(packetBytes)
attr source packetDropReasonIsIncorrectlyReceived(packetDropped)
attr title "packet drops: incorrectly received, packetBytes"
vector 50 TrackingSimulation.client.wlan[0].mac packetDropNotAddressedToUs:vector(packetBytes) ETV
attr interpolationmode none
attr recordingmode vector(packetBytes)
attr source packetDropReasonIsNotAddressedToUs(packetDropped)
attr title "packet drops: not addressed to us, packetBytes"
vector 51 TrackingSimulation.client.wlan[0].mac packetDropQueueOverflow:vector(packetBytes) ETV
attr interpolationmode none
attr recordingmode vector(packetBytes)
attr source packetDropReasonIsQueueOverflow(packetDropped)
attr title "packet drops: queue overflow, packetBytes"
vector 52 TrackingSimulation.client.wlan[0].mac packetDropRetryLimitReached:vector(packetBytes) ETV
attr interpolationmode none
attr recordingmode vector(packetBytes)
attr source packetDropReasonIsRetryLimitReached(packetDropped)
attr title "packet drops: retry limit reached, packetBytes"
vector 53 TrackingSimulation.client.wlan[0].mac packetDropDuplicateDetected:vector(packetBytes) ETV
attr interpolationmode none
attr recordingmode vector(packetBytes)
attr source packetDropReasonIsDuplicateDetected(packetDropped)
attr title "packet drops: duplicate detected, packetBytes"
vector 54 TrackingSimulation.client.wlan[0].mac packetDropOther:vector(packetBytes) ETV
attr interpolationmode none
attr recordingmode vector(packetBytes)
attr source packetDropReasonIsOther(packetDropped)
attr title "packet drops: other, packetBytes"
vector 55 TrackingSimulation.client.wlan[0].radio radioMode:vector ETV
attr enum OFF,SLEEP,RECEIVER,TRANSMITTER,TRANSCEIVER,SWITCHING
attr interpolationmode sample-hold
attr recordingmode vector
attr source radioModeChanged
attr title "Radio mode"
attr type enum
vector 56 TrackingSimulation.client.wlan[0].radio receptionState:vector ETV
attr enum UNDEFINED,IDLE,BUSY,RECEIVING
attr interpolationmode sample-hold
attr recordingmode vector
attr source receptionStateChanged
attr title "Radio reception state"
attr type enum
vector 57 TrackingSimulation.client.wlan[0].radio transmissionState:vector ETV
attr enum UNDEFINED,IDLE,TRANSMITTING
attr interpolationmode sample-hold
attr recordingmode vector
attr source transmissionStateChanged
attr title "Radio transmission state"
attr type enum
vector 58 TrackingSimulation.client.wlan[0].radio radioChannel:vector ETV
attr interpolationmode sample-hold
attr recordingmode vector
attr source radioChannelChanged
attr title "Radio channel"
vector 59 TrackingSimulation.client.wlan[0] packetDropInterfaceDown:vector(packetBytes) ETV
attr interpolationmode none
attr recordingmode vector(packetBytes)
attr source packetDropReasonIsInterfaceDown(packetDropped)
attr title "packet drops: interface down, packetBytes"
vector 60 TrackingSimulation.client.wlan[0] packetDropNoCarrier:vector(packetBytes) ETV
attr interpolationmode none
attr recordingmode vector(packetBytes)
attr source packetDropReasonIsNoCarrier(packetDropped)
attr title "packet drops: no carrier, packetBytes"
vector 61 TrackingSimulation.client.ipv4.ip packetDropAddressResolutionFailed:vector(packetBytes) ETV
attr interpolationmode none
attr recordingmode vector(packetBytes)
attr source packetDropReasonIsAddressResolutionFailed(packetDropped)
attr title "packet drop: address resolution failed, packetBytes"
vector 62 TrackingSimulation.client.ipv4.ip packetDropHopLimitReached:vector(packetBytes) ETV
attr interpolationmode none
attr recordingmode vector(packetBytes)
attr source packetDropReasonIsHopLimitReached(packetDropped)
attr title "packet drop: hop limit reached, packetBytes"
vector 63 TrackingSimulation.client.ipv4.ip packetDropForwardingDisabled:vector(packetBytes) ETV
attr interpolationmode none
attr recordingmode vector(packetBytes)
attr source packetDropReasonIsForwardingDisabled(packetDropped)
attr title "packet drop: forwarding disabled, packetBytes"
vector 64 TrackingSimulation.client.ipv4.ip packetDropLifetimeExpired:vector(packetBytes) ETV
attr interpolationmode none
attr recordingmode vector(packetBytes)
attr source packetDropReasonIsLifetimeExpired(packetDropped)
attr title "packet drop: lifetime expired, packetBytes"
vector 65 TrackingSimulation.client.ipv4.ip packetDropNoInterfaceFound:vector(packetBytes) ETV
attr interpolationmode none
attr recordingmode vector(packetBytes)
attr source packetDropReasonIsNoInterfaceFound(packetDropped)
attr title "packet drop: no interface found, packetBytes"
vector 66 TrackingSimulation.client.ipv4.ip packetDropNoRouteFound:vector(packetBytes) ETV
attr interpolationmode none
attr recordingmode vector(packetBytes)
attr source packetDropReasonIsNoRouteFound(packetDropped)
attr title "packet drop: no route found, packetBytes"
vector 67 TrackingSimulation.client.ipv4.ip packetDropUndefined:vector(packetBytes) ETV
attr interpolationmode none
attr recordingmode vector(packetBytes)
attr source packetDropReasonIsUndefined(packetDropped)
attr title "packet drop: undefined, packetBytes"
vector 68 TrackingSimulation.client.ipv4.arp arpRequestSent:vector(packetBytes) ETV
attr recordingmode vector(packetBytes)
attr source arpRequestSent
attr title "ARP request sent, packetBytes"
vector 69 TrackingSimulation.client.ipv4.arp arpReplySent:vector(packetBytes) ETV
attr recordingmode vector(packetBytes)
attr source arpReplySent
attr title "ARP replies sent, packetBytes"
vector 70 TrackingSimulation.client.udp packetSent:vector(packetBytes) ETV
attr interpolationmode none
attr recordingmode vector(packetBytes)
attr source packetSent
attr title "packets sent, packetBytes"
vector 71 TrackingSimulation.client.udp packetReceived:vector(packetBytes) ETV
attr interpolationmode none
attr recordingmode vector(packetBytes)
attr source packetReceived
attr title "packets received, packetBytes"
vector 72 TrackingSimulation.client.udp passedUpPk:vector(count) ETV
attr interpolationmode none
attr recordingmode vector(count)
attr source packetSentToUpper
attr title "packets passed up, count"
vector 73 TrackingSimulation.client.udp droppedPkWrongPort:vector(count) ETV
attr interpolationmode none
attr recordingmode vector(count)
attr source packetDropReasonIsNoPortFound(packetDropped)
attr title "packets dropped (wrong port), count"
vector 74 TrackingSimulation.client.udp droppedPkBadChecksum:vector(count) ETV
attr interpolationmode none
attr recordingmode vector(count)
attr source packetDropReasonIsIncorrectlyReceived(packetDropped)
attr title "packets dropped (checksum error), count"
vector 75 TrackingSimulation.server.lo[0].lo rcvdPkFromHl:vector(packetBytes) ETV
attr interpolationmode none
attr recordingmode vector(packetBytes)
attr source packetReceivedFromUpper
attr title "packets received from higher layer, packetBytes"
vector 76 TrackingSimulation.server.lo[0].lo passedUpPk:vector(packetBytes) ETV
attr interpolationmode none
attr recordingmode vector(packetBytes)
attr source packetSentToUpper
attr title "packets passed to higher layer, packetBytes"
vector 77 TrackingSimulation.server.lo[0] packetDropInterfaceDown:vector(packetBytes) ETV
attr interpolationmode none
attr recordingmode vector(packetBytes)
attr source packetDropReasonIsInterfaceDown(packetDropped)
attr title "packet drops: interface down, packetBytes"
vector 78 TrackingSimulation.server.lo[0] packetDropNoCarrier:vector(packetBytes) ETV
attr interpolationmode none
attr recordingmode vector(packetBytes)
attr source packetDropReasonIsNoCarrier(packetDropped)
attr title "packet drops: no carrier, packetBytes"
vector 79 TrackingSimulation.server.wlan[0].agent sentRequest:vector ETV
attr recordingmode vector
attr title "sent requests"
vector 80 TrackingSimulation.server.wlan[0].agent acceptConfirm:vector ETV
attr recordingmode vector
attr title "accepted confirms"
vector 81 TrackingSimulation.server.wlan[0].agent dropConfirm:vector ETV
attr recordingmode vector
attr title "dropped confirms"
vector 82 TrackingSimulation.server.wlan[0].mac.dcf.channelAccess.pendingQueue queueLength:vector ETV
attr autoWarmupFilter false
attr interpolationmode sample-hold
attr recordingmode vector
attr source "warmup(atomic(constant0(packetPushEnded) + count(packetPushStarted) - count(packetPulled) - count(packetRemoved) - count(packetDropped)))"
attr title "queue length"
attr unit pk
vector 83 TrackingSimulation.server.wlan[0].mac.dcf.channelAccess.pendingQueue queueBitLength:vector ETV
attr autoWarmupFilter false
attr interpolationmode sample-hold
attr recordingmode vector
attr source "warmup(atomic(constant0(packetPushEnded) + sum(packetLength(packetPushStarted)) - sum(packetLength(packetPulled)) - sum(packetLength(packetRemoved)) - sum(packetLength(packetDropped))))"
attr title "queue bit length"
attr unit b
vector 84 TrackingSimulation.server.wlan[0].mac.dcf.channelAccess.pendingQueue queueingTime:vector ETV
attr interpolationmode none
attr recordingmode vector
attr source queueingTime(packetPulled)
attr title "queueing times"
attr unit s
vector 85 TrackingSimulation.server.wlan[0].mac.dcf.channelAccess.pendingQueue incomingPacketLengths:vector ETV
attr interpolationmode none
attr recordingmode vector
attr source packetLength(packetPushStarted)
attr title "incoming packet lengths"
attr unit b
vector 86 TrackingSimulation.server.wlan[0].mac.dcf.channelAccess.pendingQueue incomingDataRate:vector ETV
attr interpolationmode linear
attr recordingmode vector
attr source throughput(packetPushStarted)
attr title "incoming datarate"
attr unit bps
vector 87 TrackingSimulation.server.wlan[0].mac.dcf.channelAccess.pendingQueue outgoingPacketLengths:vector ETV
attr interpolationmode none
attr recordingmode vector
attr source packetLength(packetPulled)
attr title "outgoing packet lengths"
attr unit b
vector 88 TrackingSimulation.server.wlan[0].mac.dcf.channelAccess.pendingQueue outgoingDataRate:vector ETV
attr interpolationmode linear
attr recordingmode vector
attr source throughput(packetPulled)
attr title "outgoing datarate"
attr unit bps
vector 89 TrackingSimulation.server.wlan[0].mac.dcf.channelAccess.pendingQueue droppedPacketLengthsQueueOverflow:vector ETV
attr interpolationmode none
attr recordingmode vector
attr source packetLength(packetDropReasonIsQueueOverflow(packetDropped))
attr title "dropped packet lengths: queue overflow"
attr unit b
vector 90 TrackingSimulation.server.wlan[0].mac.dcf.channelAccess.pendingQueue flowQueueingTime:vector ETV
attr interpolationmode none
attr recordingmode vector
attr source queueingTime(demuxFlow(packetPulled))
attr title "flow queueing times"
attr unit s
vector 91 TrackingSimulation.server.wlan[0].mac.dcf.channelAccess.pendingQueue flowIncomingDataRate:vector ETV
attr interpolationmode linear
attr recordingmode vector
attr source throughput(flowPacketLength(demuxFlow(packetPushStarted)))
attr title "flow specific incoming data rate"
attr unit bps
vector 92 TrackingSimulation.server.wlan[0].mac.dcf.channelAccess.pendingQueue flowOutgoingDataRate:vector ETV
attr interpolationmode linear
attr recordingmode vector
attr source throughput(flowPacketLength(demuxFlow(packetPulled)))
attr title "flow specific outgoing data rate"
attr unit bps
vector 93 TrackingSimulation.server.wlan[0].mac.dcf.channelAccess.inProgressFrames queueingTime:vector ETV
attr interpolationmode none
attr recordingmode vector
attr source queueingTime(packetDequeued)
attr title "queueing times"
vector 94 TrackingSimulation.server.wlan[0].mac.dcf.channelAccess.inProgressFrames queueLength:vector ETV
attr autoWarmupFilter false
attr interpolationmode sample-hold
attr recordingmode vector
attr source "warmup(count(packetEnqueued) - count(packetDequeued))"
attr title "queue length"
vector 95 TrackingSimulation.server.wlan[0].mac.dcf.channelAccess.contention backoffPeriodGenerated:vector ETV
attr interpolationmode none
attr recordingmode vector
attr title "backoff periods"
vector 96 TrackingSimulation.server.wlan[0].mac.dcf.channelAccess.contention backoffActive:vector ETV
attr autoWarmupFilter false
attr interpolationmode sample-hold
attr recordingmode vector
attr source warmup(count(backoffStarted)-count(backoffStopped))
attr title "backoff active"
vector 97 TrackingSimulation.server.wlan[0].mac.dcf.channelAccess.contention stateChanged:vector ETV
attr enum IDLE,DEFER,IFS_AND_BACKOFF
attr interpolationmode none
attr recordingmode vector
attr title "contention state changed"
attr type enum
vector 98 TrackingSimulation.server.wlan[0].mac.dcf.recipientMacDataService packetDropDuplicateDetected:vector(packetBytes) ETV
attr interpolationmode none
attr recordingmode vector(packetBytes)
attr source packetDropReasonIsDuplicateDetected(packetDropped)
attr title "packet drops: duplicate detected, packetBytes"
vector 99 TrackingSimulation.server.wlan[0].mac.dcf.recoveryProcedure contentionWindowChanged:vector ETV
attr interpolationmode sample-hold
attr recordingmode vector
attr title "contention window"
vector 100 TrackingSimulation.server.wlan[0].mac.dcf packetSentToPeer:vector(packetBytes) ETV
attr interpolationmode none
attr recordingmode vector(packetBytes)
attr title "packets sent, packetBytes"
vector 101 TrackingSimulation.server.wlan[0].mac.dcf packetSentToPeerUnicast:vector(packetBytes) ETV
attr interpolationmode none
attr recordingmode vector(packetBytes)
attr source ieee80211Unicast(packetSentToPeer)
attr title "packets sent: unicast, packetBytes"
vector 102 TrackingSimulation.server.wlan[0].mac.dcf packetSentToPeerMulticast:vector(packetBytes) ETV
attr interpolationmode none
attr recordingmode vector(packetBytes)
attr source ieee80211Multicast(packetSentToPeer)
attr title "packets sent: multicast, packetBytes"
vector 103 TrackingSimulation.server.wlan[0].mac.dcf packetSentToPeerBroadcast:vector(packetBytes) ETV
attr interpolationmode none
attr recordingmode vector(packetBytes)
attr source ieee80211Broadcast(packetSentToPeer)
attr title "packets sent: broadcast , packetBytes"
vector 104 TrackingSimulation.server.wlan[0].mac.dcf packetSentToPeerWithRetry:vector(packetBytes) ETV
attr interpolationmode none
attr recordingmode vector(packetBytes)
attr source ieee80211Retry(packetSentToPeer)
attr title "packets sent: with retry, packetBytes"
vector 105 TrackingSimulation.server.wlan[0].mac.dcf packetSentToPeerWithoutRetry:vector(packetBytes) ETV
attr interpolationmode none
attr recordingmode vector(packetBytes)
attr source ieee80211NotRetry(packetSentToPeer)
attr title "packets sent: without retry, packetBytes"
vector 106 TrackingSimulation.server.wlan[0].mac.dcf packetReceivedFromPeer:vector(packetBytes) ETV
attr interpolationmode none
attr recordingmode vector(packetBytes)
attr title "packets received, packetBytes"
vector 107 TrackingSimulation.server.wlan[0].mac.dcf packetReceivedFromPeerUnicast:vector(packetBytes) ETV
attr interpolationmode none
attr recordingmode vector(packetBytes)
attr source ieee80211Unicast(packetReceivedFromPeer)
attr title "packets received: unicast, packetBytes"
vector 108 TrackingSimulation.server.wlan[0].mac.dcf packetReceivedFromPeerMulticast:vector(packetBytes) ETV
attr interpolationmode none
attr recordingmode vector(packetBytes)
attr source ieee80211Multicast(packetReceivedFromPeer)
attr title "packets received: multicast, packetBytes"
vector 109 TrackingSimulation.server.wlan[0].mac.dcf packetReceivedFromPeerBroadcast:vector(packetBytes) ETV
attr interpolationmode none
attr recordingmode vector(packetBytes)
attr source ieee80211Broadcast(packetReceivedFromPeer)
attr title "packets received: broadcast, packetBytes"
vector 110 TrackingSimulation.server.wlan[0].mac.dcf packetReceivedFromPeerWithRetry:vector(packetBytes) ETV
attr interpolationmode none
attr recordingmode vector(packetBytes)
attr source ieee80211Retry(packetReceivedFromPeer)
attr title "packets received: with retry, packetBytes"
vector 111 TrackingSimulation.server.wlan[0].mac.dcf packetReceivedFromPeerWithoutRetry:vector(packetBytes) ETV
attr interpolationmode none
attr recordingmode vector(packetBytes)
attr source ieee80211NotRetry(packetReceivedFromPeer)
attr title "packets received: without retry, packetBytes"
vector 112 TrackingSimulation.server.wlan[0].mac.dcf packetDrop:vector(packetBytes) ETV
attr interpolationmode none
attr recordingmode vector(packetBytes)
attr source packetDropped
attr title "packet drops, packetBytes"
vector 113 TrackingSimulation.server.wlan[0].mac.dcf packetDropNotAddressedToUs:vector(packetBytes) ETV
attr interpolationmode none
attr recordingmode vector(packetBytes)
attr source packetDropReasonIsNotAddressedToUs(packetDropped)
attr title "packet drops: not addressed to us, packetBytes"
vector 114 TrackingSimulation.server.wlan[0].mac.dcf packetDropQueueOverflow:vector(packetBytes) ETV
attr interpolationmode none
attr recordingmode vector(packetBytes)
attr source packetDropReasonIsQueueOverflow(packetDropped)
attr title "packet drops: queue overflow, packetBytes"
vector 115 TrackingSimulation.server.wlan[0].mac.dcf packetDropRetryLimitReached:vector(packetBytes) ETV
attr interpolationmode none
attr recordingmode vector(packetBytes)
attr source packetDropReasonIsRetryLimitReached(packetDropped)
attr title "packet drops: retry limit reached, packetBytes"
vector 116 TrackingSimulation.server.wlan[0].mac.dcf frameSequenceActive:vector ETV
attr autoWarmupFilter false
attr interpolationmode sample-hold
attr recordingmode vector
attr source warmup(count(frameSequenceStarted)-count(frameSequenceFinished))
attr title "frame sequence active"
vector 117 TrackingSimulation.server.wlan[0].mac.dcf datarateSelected:vector ETV
attr interpolationmode none
attr recordingmode vector
attr title "datarates selected"
vector 118 TrackingSimulation.server.wlan[0].mac.rx nav:vector ETV
attr interpolationmode linear
attr recordingmode vector
attr source navChanged
attr title "network allocation vector"
vector 119 TrackingSimulation.server.wlan[0].mac packetSentToUpper:vector(packetBytes) ETV
attr interpolationmode none
attr recordingmode vector(packetBytes)
attr title "packets sent to upper layer, packetBytes"
vector 120 TrackingSimulation.server.wlan[0].mac packetSentToLower:vector(packetBytes) ETV
attr interpolationmode none
attr recordingmode vector(packetBytes)
attr title "packets sent to lower layer, packetBytes"
vector 121 TrackingSimulation.server.wlan[0].mac packetReceivedFromUpper:vector(packetBytes) ETV
attr interpolationmode none
attr recordingmode vector(packetBytes)
attr title "packets received from upper layer, packetBytes"
vector 122 TrackingSimulation.server.wlan[0].mac packetReceivedFromLower:vector(packetBytes) ETV
attr interpolationmode none
attr recordingmode vector(packetBytes)
attr title "packets received from lower layer, packetBytes"
vector 123 TrackingSimulation.server.wlan[0].mac packetDrop:vector(packetBytes) ETV
attr interpolationmode none
attr recordingmode vector(packetBytes)
attr source packetDropped
attr title "packet drops, packetBytes"
vector 124 TrackingSimulation.server.wlan[0].mac packetDropIncorrectlyReceived:vector(packetBytes) ETV
attr interpolationmode none
attr recordingmode vector(packetBytes)
attr source packetDropReasonIsIncorrectlyReceived(packetDropped)
attr title "packet drops: incorrectly received, packetBytes"
vector 125 TrackingSimulation.server.wlan[0].mac packetDropNotAddressedToUs:vector(packetBytes) ETV
attr interpolationmode none
attr recordingmode vector(packetBytes)
attr source packetDropReasonIsNotAddressedToUs(packetDropped)
attr title "packet drops: not addressed to us, packetBytes"
vector 126 TrackingSimulation.server.wlan[0].mac packetDropQueueOverflow:vector(packetBytes) ETV
attr interpolationmode none
attr recordingmode vector(packetBytes)
attr source packetDropReasonIsQueueOverflow(packetDropped)
attr title "packet drops: queue overflow, packetBytes"
vector 127 TrackingSimulation.server.wlan[0].mac packetDropRetryLimitReached:vector(packetBytes) ETV
attr interpolationmode none
attr recordingmode vector(packetBytes)
attr source packetDropReasonIsRetryLimitReached(packetDropped)
attr title "packet drops: retry limit reached, packetBytes"
vector 128 TrackingSimulation.server.wlan[0].mac packetDropDuplicateDetected:vector(packetBytes) ETV
attr interpolationmode none
attr recordingmode vector(packetBytes)
attr source packetDropReasonIsDuplicateDetected(packetDropped)
attr title "packet drops: duplicate detected, packetBytes"
vector 129 TrackingSimulation.server.wlan[0].mac packetDropOther:vector(packetBytes) ETV
attr interpolationmode none
attr recordingmode vector(packetBytes)
attr source packetDropReasonIsOther(packetDropped)
attr title "packet drops: other, packetBytes"
vector 130 TrackingSimulation.server.wlan[0].radio radioMode:vector ETV
attr enum OFF,SLEEP,RECEIVER,TRANSMITTER,TRANSCEIVER,SWITCHING
attr interpolationmode sample-hold
attr recordingmode vector
attr source radioModeChanged
attr title "Radio mode"
attr type enum
vector 131 TrackingSimulation.server.wlan[0].radio receptionState:vector ETV
attr enum UNDEFINED,IDLE,BUSY,RECEIVING
attr interpolationmode sample-hold
attr recordingmode vector
attr source receptionStateChanged
attr title "Radio reception state"
attr type enum
vector 132 TrackingSimulation.server.wlan[0].radio transmissionState:vector ETV
attr enum UNDEFINED,IDLE,TRANSMITTING
attr interpolationmode sample-hold
attr recordingmode vector
attr source transmissionStateChanged
attr title "Radio transmission state"
attr type enum
vector 133 TrackingSimulation.server.wlan[0].radio radioChannel:vector ETV
attr interpolationmode sample-hold
attr recordingmode vector
attr source radioChannelChanged
attr title "Radio channel"
vector 134 TrackingSimulation.server.wlan[0] packetDropInterfaceDown:vector(packetBytes) ETV
attr interpolationmode none
attr recordingmode vector(packetBytes)
attr source packetDropReasonIsInterfaceDown(packetDropped)
attr title "packet drops: interface down, packetBytes"
vector 135 TrackingSimulation.server.wlan[0] packetDropNoCarrier:vector(packetBytes) ETV
attr interpolationmode none
attr recordingmode vector(packetBytes)
attr source packetDropReasonIsNoCarrier(packetDropped)
attr title "packet drops: no carrier, packetBytes"
vector 136 TrackingSimulation.server.ipv4.ip packetDropAddressResolutionFailed:vector(packetBytes) ETV
attr interpolationmode none
attr recordingmode vector(packetBytes)
attr source packetDropReasonIsAddressResolutionFailed(packetDropped)
attr title "packet drop: address resolution failed, packetBytes"
vector 137 TrackingSimulation.server.ipv4.ip packetDropHopLimitReached:vector(packetBytes) ETV
attr interpolationmode none
attr recordingmode vector(packetBytes)
attr source packetDropReasonIsHopLimitReached(packetDropped)
attr title "packet drop: hop limit reached, packetBytes"
vector 138 TrackingSimulation.server.ipv4.ip packetDropForwardingDisabled:vector(packetBytes) ETV
attr interpolationmode none
attr recordingmode vector(packetBytes)
attr source packetDropReasonIsForwardingDisabled(packetDropped)
attr title "packet drop: forwarding disabled, packetBytes"
vector 139 TrackingSimulation.server.ipv4.ip packetDropLifetimeExpired:vector(packetBytes) ETV
attr interpolationmode none
attr recordingmode vector(packetBytes)
attr source packetDropReasonIsLifetimeExpired(packetDropped)
attr title "packet drop: lifetime expired, packetBytes"
vector 140 TrackingSimulation.server.ipv4.ip packetDropNoInterfaceFound:vector(packetBytes) ETV
attr interpolationmode none
attr recordingmode vector(packetBytes)
attr source packetDropReasonIsNoInterfaceFound(packetDropped)
attr title "packet drop: no interface found, packetBytes"
vector 141 TrackingSimulation.server.ipv4.ip packetDropNoRouteFound:vector(packetBytes) ETV
attr interpolationmode none
attr recordingmode vector(packetBytes)
attr source packetDropReasonIsNoRouteFound(packetDropped)
attr title "packet drop: no route found, packetBytes"
vector 142 TrackingSimulation.server.ipv4.ip packetDropUndefined:vector(packetBytes) ETV
attr interpolationmode none
attr recordingmode vector(packetBytes)
attr source packetDropReasonIsUndefined(packetDropped)
attr title "packet drop: undefined, packetBytes"
vector 143 TrackingSimulation.server.ipv4.arp arpRequestSent:vector(packetBytes) ETV
attr recordingmode vector(packetBytes)
attr source arpRequestSent
attr title "ARP request sent, packetBytes"
vector 144 TrackingSimulation.server.ipv4.arp arpReplySent:vector(packetBytes) ETV
attr recordingmode vector(packetBytes)
attr source arpReplySent
attr title "ARP replies sent, packetBytes"
vector 145 TrackingSimulation.server.udp packetSent:vector(packetBytes) ETV
attr interpolationmode none
attr recordingmode vector(packetBytes)
attr source packetSent
attr title "packets sent, packetBytes"
vector 146 TrackingSimulation.server.udp packetReceived:vector(packetBytes) ETV
attr interpolationmode none
attr recordingmode vector(packetBytes)
attr source packetReceived
attr title "packets received, packetBytes"
vector 147 TrackingSimulation.server.udp passedUpPk:vector(count) ETV
attr interpolationmode none
attr recordingmode vector(count)
attr source packetSentToUpper
attr title "packets passed up, count"
vector 148 TrackingSimulation.server.udp droppedPkWrongPort:vector(count) ETV
attr interpolationmode none
attr recordingmode vector(count)
attr source packetDropReasonIsNoPortFound(packetDropped)
attr title "packets dropped (wrong port), count"
vector 149 TrackingSimulation.server.udp droppedPkBadChecksum:vector(count) ETV
attr interpolationmode none
attr recordingmode vector(count)
attr source packetDropReasonIsIncorrectlyReceived(packetDropped)
attr title "packets dropped (checksum error), count"
vector 150 TrackingSimulation.server.app[0] packetReceived:vector(packetBytes) ETV
attr interpolationmode none
attr recordingmode vector(packetBytes)
attr source packetReceived
attr title "packets received, packetBytes"
vector 151 TrackingSimulation.server.app[0] throughput:vector ETV
attr recordingmode vector
attr source throughput(packetReceived)
attr title throughput
attr unit bps
vector 152 TrackingSimulation.server.app[0] endToEndDelay:vector ETV
attr interpolationmode none
attr recordingmode vector
attr source dataAge(packetReceived)
attr title "end-to-end delay"
attr unit s
vector 153 TrackingSimulation.server.app[0] rcvdPkSeqNo:vector ETV
attr interpolationmode none
attr recordingmode vector
attr source appPkSeqNo(packetReceived)
attr title "received packet sequence number"
vector 154 TrackingSimulation.sensor[0].lo[0].lo rcvdPkFromHl:vector(packetBytes) ETV
attr interpolationmode none
attr recordingmode vector(packetBytes)
attr source packetReceivedFromUpper
attr title "packets received from higher layer, packetBytes"
vector 155 TrackingSimulation.sensor[0].lo[0].lo passedUpPk:vector(packetBytes) ETV
attr interpolationmode none
attr recordingmode vector(packetBytes)
attr source packetSentToUpper
attr title "packets passed to higher layer, packetBytes"
vector 156 TrackingSimulation.sensor[0].lo[0] packetDropInterfaceDown:vector(packetBytes) ETV
attr interpolationmode none
attr recordingmode vector(packetBytes)
attr source packetDropReasonIsInterfaceDown(packetDropped)
attr title "packet drops: interface down, packetBytes"
vector 157 TrackingSimulation.sensor[0].lo[0] packetDropNoCarrier:vector(packetBytes) ETV
attr interpolationmode none
attr recordingmode vector(packetBytes)
attr source packetDropReasonIsNoCarrier(packetDropped)
attr title "packet drops: no carrier, packetBytes"
vector 158 TrackingSimulation.sensor[0].wlan[0].agent sentRequest:vector ETV
attr recordingmode vector
attr title "sent requests"
vector 159 TrackingSimulation.sensor[0].wlan[0].agent acceptConfirm:vector ETV
attr recordingmode vector
attr title "accepted confirms"
vector 160 TrackingSimulation.sensor[0].wlan[0].agent dropConfirm:vector ETV
attr recordingmode vector
attr title "dropped confirms"
vector 161 TrackingSimulation.sensor[0].wlan[0].mac.dcf.channelAccess.pendingQueue queueLength:vector ETV
attr autoWarmupFilter false
attr interpolationmode sample-hold
attr recordingmode vector
attr source "warmup(atomic(constant0(packetPushEnded) + count(packetPushStarted) - count(packetPulled) - count(packetRemoved) - count(packetDropped)))"
attr title "queue length"
attr unit pk
vector 162 TrackingSimulation.sensor[0].wlan[0].mac.dcf.channelAccess.pendingQueue queueBitLength:vector ETV
attr autoWarmupFilter false
attr interpolationmode sample-hold
attr recordingmode vector
attr source "warmup(atomic(constant0(packetPushEnded) + sum(packetLength(packetPushStarted)) - sum(packetLength(packetPulled)) - sum(packetLength(packetRemoved)) - sum(packetLength(packetDropped))))"
attr title "queue bit length"
attr unit b
vector 163 TrackingSimulation.sensor[0].wlan[0].mac.dcf.channelAccess.pendingQueue queueingTime:vector ETV
attr interpolationmode none
attr recordingmode vector
attr source queueingTime(packetPulled)
attr title "queueing times"
attr unit s
vector 164 TrackingSimulation.sensor[0].wlan[0].mac.dcf.channelAccess.pendingQueue incomingPacketLengths:vector ETV
attr interpolationmode none
attr recordingmode vector
attr source packetLength(packetPushStarted)
attr title "incoming packet lengths"
attr unit b
vector 165 TrackingSimulation.sensor[0].wlan[0].mac.dcf.channelAccess.pendingQueue incomingDataRate:vector ETV
attr interpolationmode linear
attr recordingmode vector
attr source throughput(packetPushStarted)
attr title "incoming datarate"
attr unit bps
vector 166 TrackingSimulation.sensor[0].wlan[0].mac.dcf.channelAccess.pendingQueue outgoingPacketLengths:vector ETV
attr interpolationmode none
attr recordingmode vector
attr source packetLength(packetPulled)
attr title "outgoing packet lengths"
attr unit b
vector 167 TrackingSimulation.sensor[0].wlan[0].mac.dcf.channelAccess.pendingQueue outgoingDataRate:vector ETV
attr interpolationmode linear
attr recordingmode vector
attr source throughput(packetPulled)
attr title "outgoing datarate"
attr unit bps
vector 168 TrackingSimulation.sensor[0].wlan[0].mac.dcf.channelAccess.pendingQueue droppedPacketLengthsQueueOverflow:vector ETV
attr interpolationmode none
attr recordingmode vector
attr source packetLength(packetDropReasonIsQueueOverflow(packetDropped))
attr title "dropped packet lengths: queue overflow"
attr unit b
vector 169 TrackingSimulation.sensor[0].wlan[0].mac.dcf.channelAccess.pendingQueue flowQueueingTime:vector ETV
attr interpolationmode none
attr recordingmode vector
attr source queueingTime(demuxFlow(packetPulled))
attr title "flow queueing times"
attr unit s
vector 170 TrackingSimulation.sensor[0].wlan[0].mac.dcf.channelAccess.pendingQueue flowIncomingDataRate:vector ETV
attr interpolationmode linear
attr recordingmode vector
attr source throughput(flowPacketLength(demuxFlow(packetPushStarted)))
attr title "flow specific incoming data rate"
attr unit bps
vector 171 TrackingSimulation.sensor[0].wlan[0].mac.dcf.channelAccess.pendingQueue flowOutgoingDataRate:vector ETV
attr interpolationmode linear
attr recordingmode vector
attr source throughput(flowPacketLength(demuxFlow(packetPulled)))
attr title "flow specific outgoing data rate"
attr unit bps
vector 172 TrackingSimulation.sensor[0].wlan[0].mac.dcf.channelAccess.inProgressFrames queueingTime:vector ETV
attr interpolationmode none
attr recordingmode vector
attr source queueingTime(packetDequeued)
attr title "queueing times"
vector 173 TrackingSimulation.sensor[0].wlan[0].mac.dcf.channelAccess.inProgressFrames queueLength:vector ETV
attr autoWarmupFilter false
attr interpolationmode sample-hold
attr recordingmode vector
attr source "warmup(count(packetEnqueued) - count(packetDequeued))"
attr title "queue length"
vector 174 TrackingSimulation.sensor[0].wlan[0].mac.dcf.channelAccess.contention backoffPeriodGenerated:vector ETV
attr interpolationmode none
attr recordingmode vector
attr title "backoff periods"
vector 175 TrackingSimulation.sensor[0].wlan[0].mac.dcf.channelAccess.contention backoffActive:vector ETV
attr autoWarmupFilter false
attr interpolationmode sample-hold
attr recordingmode vector
attr source warmup(count(backoffStarted)-count(backoffStopped))
attr title "backoff active"
vector 176 TrackingSimulation.sensor[0].wlan[0].mac.dcf.channelAccess.contention stateChanged:vector ETV
attr enum IDLE,DEFER,IFS_AND_BACKOFF
attr interpolationmode none
attr recordingmode vector
attr title "contention state changed"
attr type enum
vector 177 TrackingSimulation.sensor[0].wlan[0].mac.dcf.recipientMacDataService packetDropDuplicateDetected:vector(packetBytes) ETV
attr interpolationmode none
attr recordingmode vector(packetBytes)
attr source packetDropReasonIsDuplicateDetected(packetDropped)
attr title "packet drops: duplicate detected, packetBytes"
vector 178 TrackingSimulation.sensor[0].wlan[0].mac.dcf.recoveryProcedure contentionWindowChanged:vector ETV
attr interpolationmode sample-hold
attr recordingmode vector
attr title "contention window"
vector 179 TrackingSimulation.sensor[0].wlan[0].mac.dcf packetSentToPeer:vector(packetBytes) ETV
attr interpolationmode none
attr recordingmode vector(packetBytes)
attr title "packets sent, packetBytes"
vector 180 TrackingSimulation.sensor[0].wlan[0].mac.dcf packetSentToPeerUnicast:vector(packetBytes) ETV
attr interpolationmode none
attr recordingmode vector(packetBytes)
attr source ieee80211Unicast(packetSentToPeer)
attr title "packets sent: unicast, packetBytes"
vector 181 TrackingSimulation.sensor[0].wlan[0].mac.dcf packetSentToPeerMulticast:vector(packetBytes) ETV
attr interpolationmode none
attr recordingmode vector(packetBytes)
attr source ieee80211Multicast(packetSentToPeer)
attr title "packets sent: multicast, packetBytes"
vector 182 TrackingSimulation.sensor[0].wlan[0].mac.dcf packetSentToPeerBroadcast:vector(packetBytes) ETV
attr interpolationmode none
attr recordingmode vector(packetBytes)
attr source ieee80211Broadcast(packetSentToPeer)
attr title "packets sent: broadcast , packetBytes"
vector 183 TrackingSimulation.sensor[0].wlan[0].mac.dcf packetSentToPeerWithRetry:vector(packetBytes) ETV
attr interpolationmode none
attr recordingmode vector(packetBytes)
attr source ieee80211Retry(packetSentToPeer)
attr title "packets sent: with retry, packetBytes"
vector 184 TrackingSimulation.sensor[0].wlan[0].mac.dcf packetSentToPeerWithoutRetry:vector(packetBytes) ETV
attr interpolationmode none
attr recordingmode vector(packetBytes)
attr source ieee80211NotRetry(packetSentToPeer)
attr title "packets sent: without retry, packetBytes"
vector 185 TrackingSimulation.sensor[0].wlan[0].mac.dcf packetReceivedFromPeer:vector(packetBytes) ETV
attr interpolationmode none
attr recordingmode vector(packetBytes)
attr title "packets received, packetBytes"
vector 186 TrackingSimulation.sensor[0].wlan[0].mac.dcf packetReceivedFromPeerUnicast:vector(packetBytes) ETV
attr interpolationmode none
attr recordingmode vector(packetBytes)
attr source ieee80211Unicast(packetReceivedFromPeer)
attr title "packets received: unicast, packetBytes"
vector 187 TrackingSimulation.sensor[0].wlan[0].mac.dcf packetReceivedFromPeerMulticast:vector(packetBytes) ETV
attr interpolationmode none
attr recordingmode vector(packetBytes)
attr source ieee80211Multicast(packetReceivedFromPeer)
attr title "packets received: multicast, packetBytes"
vector 188 TrackingSimulation.sensor[0].wlan[0].mac.dcf packetReceivedFromPeerBroadcast:vector(packetBytes) ETV
attr interpolationmode none
attr recordingmode vector(packetBytes)
attr source ieee80211Broadcast(packetReceivedFromPeer)
attr title "packets received: broadcast, packetBytes"
vector 189 TrackingSimulation.sensor[0].wlan[0].mac.dcf packetReceivedFromPeerWithRetry:vector(packetBytes) ETV
attr interpolationmode none
attr recordingmode vector(packetBytes)
attr source ieee80211Retry(packetReceivedFromPeer)
attr title "packets received: with retry, packetBytes"
vector 190 TrackingSimulation.sensor[0].wlan[0].mac.dcf packetReceivedFromPeerWithoutRetry:vector(packetBytes) ETV
attr interpolationmode none
attr recordingmode vector(packetBytes)
attr source ieee80211NotRetry(packetReceivedFromPeer)
attr title "packets received: without retry, packetBytes"
vector 191 TrackingSimulation.sensor[0].wlan[0].mac.dcf packetDrop:vector(packetBytes) ETV
attr interpolationmode none
attr recordingmode vector(packetBytes)
attr source packetDropped
attr title "packet drops, packetBytes"
vector 192 TrackingSimulation.sensor[0].wlan[0].mac.dcf packetDropNotAddressedToUs:vector(packetBytes) ETV
attr interpolationmode none
attr recordingmode vector(packetBytes)
attr source packetDropReasonIsNotAddressedToUs(packetDropped)
attr title "packet drops: not addressed to us, packetBytes"
vector 193 TrackingSimulation.sensor[0].wlan[0].mac.dcf packetDropQueueOverflow:vector(packetBytes) ETV
attr interpolationmode none
attr recordingmode vector(packetBytes)
attr source packetDropReasonIsQueueOverflow(packetDropped)
attr title "packet drops: queue overflow, packetBytes"
vector 194 TrackingSimulation.sensor[0].wlan[0].mac.dcf packetDropRetryLimitReached:vector(packetBytes) ETV
attr interpolationmode none
attr recordingmode vector(packetBytes)
attr source packetDropReasonIsRetryLimitReached(packetDropped)
attr title "packet drops: retry limit reached, packetBytes"
vector 195 TrackingSimulation.sensor[0].wlan[0].mac.dcf frameSequenceActive:vector ETV
attr autoWarmupFilter false
attr interpolationmode sample-hold
attr recordingmode vector
attr source warmup(count(frameSequenceStarted)-count(frameSequenceFinished))
attr title "frame sequence active"
vector 196 TrackingSimulation.sensor[0].wlan[0].mac.dcf datarateSelected:vector ETV
attr interpolationmode none
attr recordingmode vector
attr title "datarates selected"
vector 197 TrackingSimulation.sensor[0].wlan[0].mac.rx nav:vector ETV
attr interpolationmode linear
attr recordingmode vector
attr source navChanged
attr title "network allocation vector"
vector 198 TrackingSimulation.sensor[0].wlan[0].mac packetSentToUpper:vector(packetBytes) ETV
attr interpolationmode none
attr recordingmode vector(packetBytes)
attr title "packets sent to upper layer, packetBytes"
vector 199 TrackingSimulation.sensor[0].wlan[0].mac packetSentToLower:vector(packetBytes) ETV
attr interpolationmode none
attr recordingmode vector(packetBytes)
attr title "packets sent to lower layer, packetBytes"
vector 200 TrackingSimulation.sensor[0].wlan[0].mac packetReceivedFromUpper:vector(packetBytes) ETV
attr interpolationmode none
attr recordingmode vector(packetBytes)
attr title "packets received from upper layer, packetBytes"
vector 201 TrackingSimulation.sensor[0].wlan[0].mac packetReceivedFromLower:vector(packetBytes) ETV
attr interpolationmode none
attr recordingmode vector(packetBytes)
attr title "packets received from lower layer, packetBytes"
vector 202 TrackingSimulation.sensor[0].wlan[0].mac packetDrop:vector(packetBytes) ETV
attr interpolationmode none
attr recordingmode vector(packetBytes)
attr source packetDropped
attr title "packet drops, packetBytes"
vector 203 TrackingSimulation.sensor[0].wlan[0].mac packetDropIncorrectlyReceived:vector(packetBytes) ETV
attr interpolationmode none
attr recordingmode vector(packetBytes)
attr source packetDropReasonIsIncorrectlyReceived(packetDropped)
attr title "packet drops: incorrectly received, packetBytes"
vector 204 TrackingSimulation.sensor[0].wlan[0].mac packetDropNotAddressedToUs:vector(packetBytes) ETV
attr interpolationmode none
attr recordingmode vector(packetBytes)
attr source packetDropReasonIsNotAddressedToUs(packetDropped)
attr title "packet drops: not addressed to us, packetBytes"
vector 205 TrackingSimulation.sensor[0].wlan[0].mac packetDropQueueOverflow:vector(packetBytes) ETV
attr interpolationmode none
attr recordingmode vector(packetBytes)
attr source packetDropReasonIsQueueOverflow(packetDropped)
attr title "packet drops: queue overflow, packetBytes"
vector 206 TrackingSimulation.sensor[0].wlan[0].mac packetDropRetryLimitReached:vector(packetBytes) ETV
attr interpolationmode none
attr recordingmode vector(packetBytes)
attr source packetDropReasonIsRetryLimitReached(packetDropped)
attr title "packet drops: retry limit reached, packetBytes"
vector 207 TrackingSimulation.sensor[0].wlan[0].mac packetDropDuplicateDetected:vector(packetBytes) ETV
attr interpolationmode none
attr recordingmode vector(packetBytes)
attr source packetDropReasonIsDuplicateDetected(packetDropped)
attr title "packet drops: duplicate detected, packetBytes"
vector 208 TrackingSimulation.sensor[0].wlan[0].mac packetDropOther:vector(packetBytes) ETV
attr interpolationmode none
attr recordingmode vector(packetBytes)
attr source packetDropReasonIsOther(packetDropped)
attr title "packet drops: other, packetBytes"
vector 209 TrackingSimulation.sensor[0].wlan[0].radio radioMode:vector ETV
attr enum OFF,SLEEP,RECEIVER,TRANSMITTER,TRANSCEIVER,SWITCHING
attr interpolationmode sample-hold
attr recordingmode vector
attr source radioModeChanged
attr title "Radio mode"
attr type enum
vector 210 TrackingSimulation.sensor[0].wlan[0].radio receptionState:vector ETV
attr enum UNDEFINED,IDLE,BUSY,RECEIVING
attr interpolationmode sample-hold
attr recordingmode vector
attr source receptionStateChanged
attr title "Radio reception state"
attr type enum
vector 211 TrackingSimulation.sensor[0].wlan[0].radio transmissionState:vector ETV
attr enum UNDEFINED,IDLE,TRANSMITTING
attr interpolationmode sample-hold
attr recordingmode vector
attr source transmissionStateChanged
attr title "Radio transmission state"
attr type enum
vector 212 TrackingSimulation.sensor[0].wlan[0].radio radioChannel:vector ETV
attr interpolationmode sample-hold
attr recordingmode vector
attr source radioChannelChanged
attr title "Radio channel"
vector 213 TrackingSimulation.sensor[0].wlan[0] packetDropInterfaceDown:vector(packetBytes) ETV
attr interpolationmode none
attr recordingmode vector(packetBytes)
attr source packetDropReasonIsInterfaceDown(packetDropped)
attr title "packet drops: interface down, packetBytes"
vector 214 TrackingSimulation.sensor[0].wlan[0] packetDropNoCarrier:vector(packetBytes) ETV
attr interpolationmode none
attr recordingmode vector(packetBytes)
attr source packetDropReasonIsNoCarrier(packetDropped)
attr title "packet drops: no carrier, packetBytes"
vector 215 TrackingSimulation.sensor[0].ipv4.ip packetDropAddressResolutionFailed:vector(packetBytes) ETV
attr interpolationmode none
attr recordingmode vector(packetBytes)
attr source packetDropReasonIsAddressResolutionFailed(packetDropped)
attr title "packet drop: address resolution failed, packetBytes"
vector 216 TrackingSimulation.sensor[0].ipv4.ip packetDropHopLimitReached:vector(packetBytes) ETV
attr interpolationmode none
attr recordingmode vector(packetBytes)
attr source packetDropReasonIsHopLimitReached(packetDropped)
attr title "packet drop: hop limit reached, packetBytes"
vector 217 TrackingSimulation.sensor[0].ipv4.ip packetDropForwardingDisabled:vector(packetBytes) ETV
attr interpolationmode none
attr recordingmode vector(packetBytes)
attr source packetDropReasonIsForwardingDisabled(packetDropped)
attr title "packet drop: forwarding disabled, packetBytes"
vector 218 TrackingSimulation.sensor[0].ipv4.ip packetDropLifetimeExpired:vector(packetBytes) ETV
attr interpolationmode none
attr recordingmode vector(packetBytes)
attr source packetDropReasonIsLifetimeExpired(packetDropped)
attr title "packet drop: lifetime expired, packetBytes"
vector 219 TrackingSimulation.sensor[0].ipv4.ip packetDropNoInterfaceFound:vector(packetBytes) ETV
attr interpolationmode none
attr recordingmode vector(packetBytes)
attr source packetDropReasonIsNoInterfaceFound(packetDropped)
attr title "packet drop: no interface found, packetBytes"
vector 220 TrackingSimulation.sensor[0].ipv4.ip packetDropNoRouteFound:vector(packetBytes) ETV
attr interpolationmode none
attr recordingmode vector(packetBytes)
attr source packetDropReasonIsNoRouteFound(packetDropped)
attr title "packet drop: no route found, packetBytes"
vector 221 TrackingSimulation.sensor[0].ipv4.ip packetDropUndefined:vector(packetBytes) ETV
attr interpolationmode none
attr recordingmode vector(packetBytes)
attr source packetDropReasonIsUndefined(packetDropped)
attr title "packet drop: undefined, packetBytes"
vector 222 TrackingSimulation.sensor[0].ipv4.arp arpRequestSent:vector(packetBytes) ETV
attr recordingmode vector(packetBytes)
attr source arpRequestSent
attr title "ARP request sent, packetBytes"
vector 223 TrackingSimulation.sensor[0].ipv4.arp arpReplySent:vector(packetBytes) ETV
attr recordingmode vector(packetBytes)
attr source arpReplySent
attr title "ARP replies sent, packetBytes"
vector 224 TrackingSimulation.sensor[0].udp packetSent:vector(packetBytes) ETV
attr interpolationmode none
attr recordingmode vector(packetBytes)
attr source packetSent
attr title "packets sent, packetBytes"
vector 225 TrackingSimulation.sensor[0].udp packetReceived:vector(packetBytes) ETV
attr interpolationmode none
attr recordingmode vector(packetBytes)
attr source packetReceived
attr title "packets received, packetBytes"
vector 226 TrackingSimulation.sensor[0].udp passedUpPk:vector(count) ETV
attr interpolationmode none
attr recordingmode vector(count)
attr source packetSentToUpper
attr title "packets passed up, count"
vector 227 TrackingSimulation.sensor[0].udp droppedPkWrongPort:vector(count) ETV
attr interpolationmode none
attr recordingmode vector(count)
attr source packetDropReasonIsNoPortFound(packetDropped)
attr title "packets dropped (wrong port), count"
vector 228 TrackingSimulation.sensor[0].udp droppedPkBadChecksum:vector(count) ETV
attr interpolationmode none
attr recordingmode vector(count)
attr source packetDropReasonIsIncorrectlyReceived(packetDropped)
attr title "packets dropped (checksum error), count"
vector 229 TrackingSimulation.sensor[0].app[0] packetReceived:vector(packetBytes) ETV
attr interpolationmode none
attr recordingmode vector(packetBytes)
attr source packetReceived
attr title "packets received, packetBytes"
vector 230 TrackingSimulation.sensor[0].app[0] throughput:vector ETV
attr recordingmode vector
attr source throughput(packetReceived)
attr title throughput
attr unit bps
vector 231 TrackingSimulation.sensor[0].app[0] packetSent:vector(packetBytes) ETV
attr interpolationmode none
attr recordingmode vector(packetBytes)
attr source packetSent
attr title "packets sent, packetBytes"
vector 232 TrackingSimulation.sensor[0].app[0] rcvdPkLifetime:vector ETV
attr interpolationmode none
attr recordingmode vector
attr source dataAge(packetReceived)
attr title "received packet lifetime"
attr unit s
vector 233 TrackingSimulation.sensor[0].app[0] rcvdPkSeqNo:vector ETV
attr interpolationmode none
attr recordingmode vector
attr source appPkSeqNo(packetReceived)
attr title "received packet sequence number"
vector 234 TrackingSimulation.sensor[1].lo[0].lo rcvdPkFromHl:vector(packetBytes) ETV
attr interpolationmode none
attr recordingmode vector(packetBytes)
attr source packetReceivedFromUpper
attr title "packets received from higher layer, packetBytes"
vector 235 TrackingSimulation.sensor[1].lo[0].lo passedUpPk:vector(packetBytes) ETV
attr interpolationmode none
attr recordingmode vector(packetBytes)
attr source packetSentToUpper
attr title "packets passed to higher layer, packetBytes"
vector 236 TrackingSimulation.sensor[1].lo[0] packetDropInterfaceDown:vector(packetBytes) ETV
attr interpolationmode none
attr recordingmode vector(packetBytes)
attr source packetDropReasonIsInterfaceDown(packetDropped)
attr title "packet drops: interface down, packetBytes"
vector 237 TrackingSimulation.sensor[1].lo[0] packetDropNoCarrier:vector(packetBytes) ETV
attr interpolationmode none
attr recordingmode vector(packetBytes)
attr source packetDropReasonIsNoCarrier(packetDropped)
attr title "packet drops: no carrier, packetBytes"
vector 238 TrackingSimulation.sensor[1].wlan[0].agent sentRequest:vector ETV
attr recordingmode vector
attr title "sent requests"
vector 239 TrackingSimulation.sensor[1].wlan[0].agent acceptConfirm:vector ETV
attr recordingmode vector
attr title "accepted confirms"
vector 240 TrackingSimulation.sensor[1].wlan[0].agent dropConfirm:vector ETV
attr recordingmode vector
attr title "dropped confirms"
vector 241 TrackingSimulation.sensor[1].wlan[0].mac.dcf.channelAccess.pendingQueue queueLength:vector ETV
attr autoWarmupFilter false
attr interpolationmode sample-hold
attr recordingmode vector
attr source "warmup(atomic(constant0(packetPushEnded) + count(packetPushStarted) - count(packetPulled) - count(packetRemoved) - count(packetDropped)))"
attr title "queue length"
attr unit pk
vector 242 TrackingSimulation.sensor[1].wlan[0].mac.dcf.channelAccess.pendingQueue queueBitLength:vector ETV
attr autoWarmupFilter false
attr interpolationmode sample-hold
attr recordingmode vector
attr source "warmup(atomic(constant0(packetPushEnded) + sum(packetLength(packetPushStarted)) - sum(packetLength(packetPulled)) - sum(packetLength(packetRemoved)) - sum(packetLength(packetDropped))))"
attr title "queue bit length"
attr unit b
vector 243 TrackingSimulation.sensor[1].wlan[0].mac.dcf.channelAccess.pendingQueue queueingTime:vector ETV
attr interpolationmode none
attr recordingmode vector
attr source queueingTime(packetPulled)
attr title "queueing times"
attr unit s
vector 244 TrackingSimulation.sensor[1].wlan[0].mac.dcf.channelAccess.pendingQueue incomingPacketLengths:vector ETV
attr interpolationmode none
attr recordingmode vector
attr source packetLength(packetPushStarted)
attr title "incoming packet lengths"
attr unit b
vector 245 TrackingSimulation.sensor[1].wlan[0].mac.dcf.channelAccess.pendingQueue incomingDataRate:vector ETV
attr interpolationmode linear
attr recordingmode vector
attr source throughput(packetPushStarted)
attr title "incoming datarate"
attr unit bps
vector 246 TrackingSimulation.sensor[1].wlan[0].mac.dcf.channelAccess.pendingQueue outgoingPacketLengths:vector ETV
attr interpolationmode none
attr recordingmode vector
attr source packetLength(packetPulled)
attr title "outgoing packet lengths"
attr unit b
vector 247 TrackingSimulation.sensor[1].wlan[0].mac.dcf.channelAccess.pendingQueue outgoingDataRate:vector ETV
attr interpolationmode linear
attr recordingmode vector
attr source throughput(packetPulled)
attr title "outgoing datarate"
attr unit bps
vector 248 TrackingSimulation.sensor[1].wlan[0].mac.dcf.channelAccess.pendingQueue droppedPacketLengthsQueueOverflow:vector ETV
attr interpolationmode none
attr recordingmode vector
attr source packetLength(packetDropReasonIsQueueOverflow(packetDropped))
attr title "dropped packet lengths: queue overflow"
attr unit b
vector 249 TrackingSimulation.sensor[1].wlan[0].mac.dcf.channelAccess.pendingQueue flowQueueingTime:vector ETV
attr interpolationmode none
attr recordingmode vector
attr source queueingTime(demuxFlow(packetPulled))
attr title "flow queueing times"
attr unit s
vector 250 TrackingSimulation.sensor[1].wlan[0].mac.dcf.channelAccess.pendingQueue flowIncomingDataRate:vector ETV
attr interpolationmode linear
attr recordingmode vector
attr source throughput(flowPacketLength(demuxFlow(packetPushStarted)))
attr title "flow specific incoming data rate"
attr unit bps
vector 251 TrackingSimulation.sensor[1].wlan[0].mac.dcf.channelAccess.pendingQueue flowOutgoingDataRate:vector ETV
attr interpolationmode linear
attr recordingmode vector
attr source throughput(flowPacketLength(demuxFlow(packetPulled)))
attr title "flow specific outgoing data rate"
attr unit bps
vector 252 TrackingSimulation.sensor[1].wlan[0].mac.dcf.channelAccess.inProgressFrames queueingTime:vector ETV
attr interpolationmode none
attr recordingmode vector
attr source queueingTime(packetDequeued)
attr title "queueing times"
vector 253 TrackingSimulation.sensor[1].wlan[0].mac.dcf.channelAccess.inProgressFrames queueLength:vector ETV
attr autoWarmupFilter false
attr interpolationmode sample-hold
attr recordingmode vector
attr source "warmup(count(packetEnqueued) - count(packetDequeued))"
attr title "queue length"
vector 254 TrackingSimulation.sensor[1].wlan[0].mac.dcf.channelAccess.contention backoffPeriodGenerated:vector ETV
attr interpolationmode none
attr recordingmode vector
attr title "backoff periods"
vector 255 TrackingSimulation.sensor[1].wlan[0].mac.dcf.channelAccess.contention backoffActive:vector ETV
attr autoWarmupFilter false
attr interpolationmode sample-hold
attr recordingmode vector
attr source warmup(count(backoffStarted)-count(backoffStopped))
attr title "backoff active"
vector 256 TrackingSimulation.sensor[1].wlan[0].mac.dcf.channelAccess.contention stateChanged:vector ETV
attr enum IDLE,DEFER,IFS_AND_BACKOFF
attr interpolationmode none
attr recordingmode vector
attr title "contention state changed"
attr type enum
vector 257 TrackingSimulation.sensor[1].wlan[0].mac.dcf.recipientMacDataService packetDropDuplicateDetected:vector(packetBytes) ETV
attr interpolationmode none
attr recordingmode vector(packetBytes)
attr source packetDropReasonIsDuplicateDetected(packetDropped)
attr title "packet drops: duplicate detected, packetBytes"
vector 258 TrackingSimulation.sensor[1].wlan[0].mac.dcf.recoveryProcedure contentionWindowChanged:vector ETV
attr interpolationmode sample-hold
attr recordingmode vector
attr title "contention window"
vector 259 TrackingSimulation.sensor[1].wlan[0].mac.dcf packetSentToPeer:vector(packetBytes) ETV
attr interpolationmode none
attr recordingmode vector(packetBytes)
attr title "packets sent, packetBytes"
vector 260 TrackingSimulation.sensor[1].wlan[0].mac.dcf packetSentToPeerUnicast:vector(packetBytes) ETV
attr interpolationmode none
attr recordingmode vector(packetBytes)
attr source ieee80211Unicast(packetSentToPeer)
attr title "packets sent: unicast, packetBytes"
vector 261 TrackingSimulation.sensor[1].wlan[0].mac.dcf packetSentToPeerMulticast:vector(packetBytes) ETV
attr interpolationmode none
attr recordingmode vector(packetBytes)
attr source ieee80211Multicast(packetSentToPeer)
attr title "packets sent: multicast, packetBytes"
vector 262 TrackingSimulation.sensor[1].wlan[0].mac.dcf packetSentToPeerBroadcast:vector(packetBytes) ETV
attr interpolationmode none
attr recordingmode vector(packetBytes)
attr source ieee80211Broadcast(packetSentToPeer)
attr title "packets sent: broadcast , packetBytes"
vector 263 TrackingSimulation.sensor[1].wlan[0].mac.dcf packetSentToPeerWithRetry:vector(packetBytes) ETV
attr interpolationmode none
attr recordingmode vector(packetBytes)
attr source ieee80211Retry(packetSentToPeer)
attr title "packets sent: with retry, packetBytes"
vector 264 TrackingSimulation.sensor[1].wlan[0].mac.dcf packetSentToPeerWithoutRetry:vector(packetBytes) ETV
attr interpolationmode none
attr recordingmode vector(packetBytes)
attr source ieee80211NotRetry(packetSentToPeer)
attr title "packets sent: without retry, packetBytes"
vector 265 TrackingSimulation.sensor[1].wlan[0].mac.dcf packetReceivedFromPeer:vector(packetBytes) ETV
attr interpolationmode none
attr recordingmode vector(packetBytes)
attr title "packets received, packetBytes"
vector 266 TrackingSimulation.sensor[1].wlan[0].mac.dcf packetReceivedFromPeerUnicast:vector(packetBytes) ETV
attr interpolationmode none
attr recordingmode vector(packetBytes)
attr source ieee80211Unicast(packetReceivedFromPeer)
attr title "packets received: unicast, packetBytes"
vector 267 TrackingSimulation.sensor[1].wlan[0].mac.dcf packetReceivedFromPeerMulticast:vector(packetBytes) ETV
attr interpolationmode none
attr recordingmode vector(packetBytes)
attr source ieee80211Multicast(packetReceivedFromPeer)
attr title "packets received: multicast, packetBytes"
vector 268 TrackingSimulation.sensor[1].wlan[0].mac.dcf packetReceivedFromPeerBroadcast:vector(packetBytes) ETV
attr interpolationmode none
attr recordingmode vector(packetBytes)
attr source ieee80211Broadcast(packetReceivedFromPeer)
attr title "packets received: broadcast, packetBytes"
vector 269 TrackingSimulation.sensor[1].wlan[0].mac.dcf packetReceivedFromPeerWithRetry:vector(packetBytes) ETV
attr interpolationmode none
attr recordingmode vector(packetBytes)
attr source ieee80211Retry(packetReceivedFromPeer)
attr title "packets received: with retry, packetBytes"
vector 270 TrackingSimulation.sensor[1].wlan[0].mac.dcf packetReceivedFromPeerWithoutRetry:vector(packetBytes) ETV
attr interpolationmode none
attr recordingmode vector(packetBytes)
attr source ieee80211NotRetry(packetReceivedFromPeer)
attr title "packets received: without retry, packetBytes"
vector 271 TrackingSimulation.sensor[1].wlan[0].mac.dcf packetDrop:vector(packetBytes) ETV
attr interpolationmode none
attr recordingmode vector(packetBytes)
attr source packetDropped
attr title "packet drops, packetBytes"
vector 272 TrackingSimulation.sensor[1].wlan[0].mac.dcf packetDropNotAddressedToUs:vector(packetBytes) ETV
attr interpolationmode none
attr recordingmode vector(packetBytes)
attr source packetDropReasonIsNotAddressedToUs(packetDropped)
attr title "packet drops: not addressed to us, packetBytes"
vector 273 TrackingSimulation.sensor[1].wlan[0].mac.dcf packetDropQueueOverflow:vector(packetBytes) ETV
attr interpolationmode none
attr recordingmode vector(packetBytes)
attr source packetDropReasonIsQueueOverflow(packetDropped)
attr title "packet drops: queue overflow, packetBytes"
vector 274 TrackingSimulation.sensor[1].wlan[0].mac.dcf packetDropRetryLimitReached:vector(packetBytes) ETV
attr interpolationmode none
attr recordingmode vector(packetBytes)
attr source packetDropReasonIsRetryLimitReached(packetDropped)
attr title "packet drops: retry limit reached, packetBytes"
vector 275 TrackingSimulation.sensor[1].wlan[0].mac.dcf frameSequenceActive:vector ETV
attr autoWarmupFilter false
attr interpolationmode sample-hold
attr recordingmode vector
attr source warmup(count(frameSequenceStarted)-count(frameSequenceFinished))
attr title "frame sequence active"
vector 276 TrackingSimulation.sensor[1].wlan[0].mac.dcf datarateSelected:vector ETV
attr interpolationmode none
attr recordingmode vector
attr title "datarates selected"
vector 277 TrackingSimulation.sensor[1].wlan[0].mac.rx nav:vector ETV
attr interpolationmode linear
attr recordingmode vector
attr source navChanged
attr title "network allocation vector"
vector 278 TrackingSimulation.sensor[1].wlan[0].mac packetSentToUpper:vector(packetBytes) ETV
attr interpolationmode none
attr recordingmode vector(packetBytes)
attr title "packets sent to upper layer, packetBytes"
vector 279 TrackingSimulation.sensor[1].wlan[0].mac packetSentToLower:vector(packetBytes) ETV
attr interpolationmode none
attr recordingmode vector(packetBytes)
attr title "packets sent to lower layer, packetBytes"
vector 280 TrackingSimulation.sensor[1].wlan[0].mac packetReceivedFromUpper:vector(packetBytes) ETV
attr interpolationmode none
attr recordingmode vector(packetBytes)
attr title "packets received from upper layer, packetBytes"
vector 281 TrackingSimulation.sensor[1].wlan[0].mac packetReceivedFromLower:vector(packetBytes) ETV
attr interpolationmode none
attr recordingmode vector(packetBytes)
attr title "packets received from lower layer, packetBytes"
vector 282 TrackingSimulation.sensor[1].wlan[0].mac packetDrop:vector(packetBytes) ETV
attr interpolationmode none
attr recordingmode vector(packetBytes)
attr source packetDropped
attr title "packet drops, packetBytes"
vector 283 TrackingSimulation.sensor[1].wlan[0].mac packetDropIncorrectlyReceived:vector(packetBytes) ETV
attr interpolationmode none
attr recordingmode vector(packetBytes)
attr source packetDropReasonIsIncorrectlyReceived(packetDropped)
attr title "packet drops: incorrectly received, packetBytes"
vector 284 TrackingSimulation.sensor[1].wlan[0].mac packetDropNotAddressedToUs:vector(packetBytes) ETV
attr interpolationmode none
attr recordingmode vector(packetBytes)
attr source packetDropReasonIsNotAddressedToUs(packetDropped)
attr title "packet drops: not addressed to us, packetBytes"
vector 285 TrackingSimulation.sensor[1].wlan[0].mac packetDropQueueOverflow:vector(packetBytes) ETV
attr interpolationmode none
attr recordingmode vector(packetBytes)
attr source packetDropReasonIsQueueOverflow(packetDropped)
attr title "packet drops: queue overflow, packetBytes"
vector 286 TrackingSimulation.sensor[1].wlan[0].mac packetDropRetryLimitReached:vector(packetBytes) ETV
attr interpolationmode none
attr recordingmode vector(packetBytes)
attr source packetDropReasonIsRetryLimitReached(packetDropped)
attr title "packet drops: retry limit reached, packetBytes"
vector 287 TrackingSimulation.sensor[1].wlan[0].mac packetDropDuplicateDetected:vector(packetBytes) ETV
attr interpolationmode none
attr recordingmode vector(packetBytes)
attr source packetDropReasonIsDuplicateDetected(packetDropped)
attr title "packet drops: duplicate detected, packetBytes"
vector 288 TrackingSimulation.sensor[1].wlan[0].mac packetDropOther:vector(packetBytes) ETV
attr interpolationmode none
attr recordingmode vector(packetBytes)
attr source packetDropReasonIsOther(packetDropped)
attr title "packet drops: other, packetBytes"
vector 289 TrackingSimulation.sensor[1].wlan[0].radio radioMode:vector ETV
attr enum OFF,SLEEP,RECEIVER,TRANSMITTER,TRANSCEIVER,SWITCHING
attr interpolationmode sample-hold
attr recordingmode vector
attr source radioModeChanged
attr title "Radio mode"
attr type enum
vector 290 TrackingSimulation.sensor[1].wlan[0].radio receptionState:vector ETV
attr enum UNDEFINED,IDLE,BUSY,RECEIVING
attr interpolationmode sample-hold
attr recordingmode vector
attr source receptionStateChanged
attr title "Radio reception state"
attr type enum
vector 291 TrackingSimulation.sensor[1].wlan[0].radio transmissionState:vector ETV
attr enum UNDEFINED,IDLE,TRANSMITTING
attr interpolationmode sample-hold
attr recordingmode vector
attr source transmissionStateChanged
attr title "Radio transmission state"
attr type enum
vector 292 TrackingSimulation.sensor[1].wlan[0].radio radioChannel:vector ETV
attr interpolationmode sample-hold
attr recordingmode vector
attr source radioChannelChanged
attr title "Radio channel"
vector 293 TrackingSimulation.sensor[1].wlan[0] packetDropInterfaceDown:vector(packetBytes) ETV
attr interpolationmode none
attr recordingmode vector(packetBytes)
attr source packetDropReasonIsInterfaceDown(packetDropped)
attr title "packet drops: interface down, packetBytes"
vector 294 TrackingSimulation.sensor[1].wlan[0] packetDropNoCarrier:vector(packetBytes) ETV
attr interpolationmode none
attr recordingmode vector(packetBytes)
attr source packetDropReasonIsNoCarrier(packetDropped)
attr title "packet drops: no carrier, packetBytes"
vector 295 TrackingSimulation.sensor[1].ipv4.ip packetDropAddressResolutionFailed:vector(packetBytes) ETV
attr interpolationmode none
attr recordingmode vector(packetBytes)
attr source packetDropReasonIsAddressResolutionFailed(packetDropped)
[...]
318	370582 26 121 121 0.124398582336 0.124398582336 1 1 1 1 1
321	370608 55 0 0 0 0 5 0 0 0 0
322	370663 55 0 0 0 0 5 0 0 0 0
333	370718 22 0 0 0 0 2 0 0 0 0
335	370740 22 0 0 0 0 2 0 0 0 0
336	370762 382 0 308 0 0.14490382503 16 0 0 0 0
338	371144 12 0 0 0 0 1 31 31 31 961
345	371156 81 118 279 0.105681111799 0.140609624193 3 40 40 120 4800
347	371237 81 118 279 0.105681111799 0.140609624193 3 40 40 120 4800
348	371318 81 118 279 0.105681111799 0.140609624193 3 40 40 120 4800
350	371399 81 118 279 0.105681111799 0.140609624193 3 40 40 120 4800
355	371480 22 0 0 0 0 2 0 0 0 0
361	371502 81 118 279 0.105681111799 0.140609624193 3 40 40 120 4800
369	371583 33 0 0 0 0 3 0 2 2 4
370	371616 191 0 308 0 0.14490382503 8 1 3 16 40
372	371807 37 0 124 0 0.124398582336 2 0 0 0 0
386	371844 11 0 0 0 0 1 0 0 0 0
387	371855 11 0 0 0 0 1 0 0 0 0
388	371866 11 0 0 0 0 1 0 0 0 0
398	371877 26 282 282 0.142080126819 0.142080126819 1 1 1 1 1
401	371903 55 0 0 0 0 5 0 0 0 0
402	371958 55 0 0 0 0 5 0 0 0 0
413	372013 22 0 0 0 0 2 0 0 0 0
415	372035 22 0 0 0 0 2 0 0 0 0
416	372057 380 0 293 0 0.144903138321 16 0 0 0 0
418	372437 12 0 0 0 0 1 31 31 31 961
425	372449 80 103 264 0.10567943621 0.140607948852 3 40 40 120 4800
427	372529 80 103 264 0.10567943621 0.140607948852 3 40 40 120 4800
428	372609 80 103 264 0.10567943621 0.140607948852 3 40 40 120 4800
430	372689 80 103 264 0.10567943621 0.140607948852 3 40 40 120 4800
435	372769 22 0 0 0 0 2 0 0 0 0
441	372791 80 103 264 0.10567943621 0.140607948852 3 40 40 120 4800
449	372871 33 0 0 0 0 3 0 2 2 4
450	372904 190 0 293 0 0.144903138321 8 1 3 16 40
452	373094 37 0 285 0 0.142080126819 2 0 0 0 0
466	373131 11 0 0 0 0 1 0 0 0 0
467	373142 11 0 0 0 0 1 0 0 0 0
468	373153 11 0 0 0 0 1 0 0 0 0
478	373164 25 31 31 0.079366683424 0.079366683424 1 1 1 1 1
481	373189 55 0 0 0 0 5 0 0 0 0
482	373244 55 0 0 0 0 5 0 0 0 0
493	373299 22 0 0 0 0 2 0 0 0 0
495	373321 22 0 0 0 0 2 0 0 0 0
496	373343 382 0 307 0 0.144903417975 16 0 0 0 0
498	373725 12 0 0 0 0 1 31 31 31 961
505	373737 80 97 258 0.105679074232 0.140607586677 3 40 40 120 4800
507	373817 80 97 258 0.105679074232 0.140607586677 3 40 40 120 4800
508	373897 80 97 258 0.105679074232 0.140607586677 3 40 40 120 4800
510	373977 80 97 258 0.105679074232 0.140607586677 3 40 40 120 4800
515	374057 22 0 0 0 0 2 0 0 0 0
521	374079 80 97 258 0.105679074232 0.140607586677 3 40 40 120 4800
529	374159 33 0 0 0 0 3 0 2 2 4
530	374192 191 0 307 0 0.144903417975 8 1 3 16 40
532	374383 36 0 34 0 0.079366683424 2 0 0 0 0
546	374419 11 0 0 0 0 1 0 0 0 0
547	374430 11 0 0 0 0 1 0 0 0 0
548	374441 11 0 0 0 0 1 0 0 0 0
558	374452 25 23 23 0.055899703363 0.055899703363 1 1 1 1 1
561	374477 55 0 0 0 0 5 0 0 0 0
562	374532 55 0 0 0 0 5 0 0 0 0
573	374587 22 0 0 0 0 2 0 0 0 0
575	374609 22 0 0 0 0 2 0 0 0 0
576	374631 374 0 297 0 0.144903284072 16 0 0 0 0
578	375005 12 0 0 0 0 1 31 31 31 961
585	375017 78 78 239 0.105678939406 0.14060745198 3 40 40 120 4800
587	375095 78 78 239 0.105678939406 0.14060745198 3 40 40 120 4800
588	375173 78 78 239 0.105678939406 0.14060745198 3 40 40 120 4800
590	375251 78 78 239 0.105678939406 0.14060745198 3 40 40 120 4800
595	375329 22 0 0 0 0 2 0 0 0 0
601	375351 78 78 239 0.105678939406 0.14060745198 3 40 40 120 4800
609	375429 33 0 0 0 0 3 0 2 2 4
610	375462 187 0 297 0 0.144903284072 8 1 3 16 40
612	375649 36 0 26 0 0.055899703363 2 0 0 0 0
626	375685 11 0 0 0 0 1 0 0 0 0
627	375696 11 0 0 0 0 1 0 0 0 0
628	375707 11 0 0 0 0 1 0 0 0 0
636	375718 55 0 0 0 0 5 0 0 0 0
637	375773 55 0 0 0 0 5 0 0 0 0
648	375828 22 0 0 0 0 2 0 0 0 0
650	375850 22 0 0 0 0 2 0 0 0 0
651	375872 374 0 298 0 0.144903284072 16 0 0 0 0
653	376246 12 0 0 0 0 1 31 31 31 961
660	376258 78 79 240 0.105678939406 0.14060745198 3 40 40 120 4800
662	376336 78 79 240 0.105678939406 0.14060745198 3 40 40 120 4800
663	376414 78 79 240 0.105678939406 0.14060745198 3 40 40 120 4800
665	376492 78 79 240 0.105678939406 0.14060745198 3 40 40 120 4800
670	376570 22 0 0 0 0 2 0 0 0 0
676	376592 78 79 240 0.105678939406 0.14060745198 3 40 40 120 4800
684	376670 33 0 0 0 0 3 0 2 2 4
685	376703 187 0 298 0 0.144903284072 8 1 3 16 40
687	376890 11 0 0 0 0 1 0 0 0 0
701	376901 11 0 0 0 0 1 0 0 0 0
702	376912 11 0 0 0 0 1 0 0 0 0
703	376923 11 0 0 0 0 1 0 0 0 0
711	376934 55 0 0 0 0 5 0 0 0 0
712	376989 55 0 0 0 0 5 0 0 0 0
723	377044 22 0 0 0 0 2 0 0 0 0
725	377066 22 0 0 0 0 2 0 0 0 0
726	377088 374 0 299 0 0.144903284072 16 0 0 0 0
728	377462 12 0 0 0 0 1 31 31 31 961
735	377474 78 80 241 0.105678939406 0.14060745198 3 40 40 120 4800
737	377552 78 80 241 0.105678939406 0.14060745198 3 40 40 120 4800
738	377630 78 80 241 0.105678939406 0.14060745198 3 40 40 120 4800
740	377708 78 80 241 0.105678939406 0.14060745198 3 40 40 120 4800
745	377786 22 0 0 0 0 2 0 0 0 0
751	377808 78 80 241 0.105678939406 0.14060745198 3 40 40 120 4800
759	377886 33 0 0 0 0 3 0 2 2 4
760	377919 187 0 299 0 0.144903284072 8 1 3 16 40
762	378106 11 0 0 0 0 1 0 0 0 0
776	378117 11 0 0 0 0 1 0 0 0 0
777	378128 11 0 0 0 0 1 0 0 0 0
778	378139 11 0 0 0 0 1 0 0 0 0
783	378150 26 201 201 0.136845100787 0.136845100787 1 1 1 1 1
786	378176 55 0 0 0 0 5 0 0 0 0
787	378231 55 0 0 0 0 5 0 0 0 0
798	378286 22 0 0 0 0 2 0 0 0 0
800	378308 22 0 0 0 0 2 0 0 0 0
801	378330 374 0 300 0 0.144903284072 16 0 0 0 0
803	378704 12 0 0 0 0 1 31 31 31 961
810	378716 78 81 242 0.105678939406 0.14060745198 3 40 40 120 4800
812	378794 78 81 242 0.105678939406 0.14060745198 3 40 40 120 4800
813	378872 78 81 242 0.105678939406 0.14060745198 3 40 40 120 4800
815	378950 78 81 242 0.105678939406 0.14060745198 3 40 40 120 4800
820	379028 22 0 0 0 0 2 0 0 0 0
826	379050 78 81 242 0.105678939406 0.14060745198 3 40 40 120 4800
834	379128 33 0 0 0 0 3 0 2 2 4
835	379161 187 0 300 0 0.144903284072 8 1 3 16 40
837	379348 37 0 204 0 0.136845100787 2 0 0 0 0
851	379385 11 0 0 0 0 1 0 0 0 0
852	379396 11 0 0 0 0 1 0 0 0 0
853	379407 11 0 0 0 0 1 0 0 0 0
858	379418 25 27 27 0.064965107013 0.064965107013 1 1 1 1 1
861	379443 55 0 0 0 0 5 0 0 0 0
862	379498 55 0 0 0 0 5 0 0 0 0
873	379553 22 0 0 0 0 2 0 0 0 0
875	379575 22 0 0 0 0 2 0 0 0 0
876	379597 374 0 301 0 0.144903284072 16 0 0 0 0
878	379971 12 0 0 0 0 1 31 31 31 961
885	379983 78 82 243 0.105678939406 0.14060745198 3 40 40 120 4800
887	380061 78 82 243 0.105678939406 0.14060745198 3 40 40 120 4800
888	380139 78 82 243 0.105678939406 0.14060745198 3 40 40 120 4800
890	380217 78 82 243 0.105678939406 0.14060745198 3 40 40 120 4800
895	380295 22 0 0 0 0 2 0 0 0 0
901	380317 78 82 243 0.105678939406 0.14060745198 3 40 40 120 4800
909	380395 33 0 0 0 0 3 0 2 2 4
910	380428 187 0 301 0 0.144903284072 8 1 3 16 40
912	380615 36 0 30 0 0.064965107013 2 0 0 0 0
926	380651 11 0 0 0 0 1 0 0 0 0
927	380662 11 0 0 0 0 1 0 0 0 0
928	380673 11 0 0 0 0 1 0 0 0 0
936	380684 55 0 0 0 0 5 0 0 0 0
937	380739 55 0 0 0 0 5 0 0 0 0
948	380794 22 0 0 0 0 2 0 0 0 0
950	380816 22 0 0 0 0 2 0 0 0 0
951	380838 374 0 302 0 0.144903284072 16 0 0 0 0
953	381212 12 0 0 0 0 1 31 31 31 961
960	381224 78 83 244 0.105678939406 0.14060745198 3 40 40 120 4800
962	381302 78 83 244 0.105678939406 0.14060745198 3 40 40 120 4800
963	381380 78 83 244 0.105678939406 0.14060745198 3 40 40 120 4800
965	381458 78 83 244 0.105678939406 0.14060745198 3 40 40 120 4800
970	381536 22 0 0 0 0 2 0 0 0 0
976	381558 78 83 244 0.105678939406 0.14060745198 3 40 40 120 4800
984	381636 33 0 0 0 0 3 0 2 2 4
985	381669 187 0 302 0 0.144903284072 8 1 3 16 40
987	381856 11 0 0 0 0 1 0 0 0 0
1001	381867 12 0 0 0 0 1 0 0 0 0
1002	381879 12 0 0 0 0 1 0 0 0 0
1003	381891 12 0 0 0 0 1 0 0 0 0
1008	381903 25 15 15 0.04056545198 0.04056545198 1 1 1 1 1
1011	381928 112 0 208 0 0.14056545198 7 0 1 1 1
1012	382040 114 0 208 0 0.14056545198 7 0 320 320 102400
1013	382154 26 208 208 0.14056545198 0.14056545198 1 0 0 0 0
1014	382180 28 206 206 0.14056545198 0.14056545198 1 320 320 320 102400
1015	382208 16 206 206 0.1 0.1 1 0 0 0 0
1016	382224 28 208 208 0.14056545198 0.14056545198 1 320 320 320 102400
1017	382252 16 208 208 0.1 0.1 1 0 0 0 0
1022	382268 32 228 228 0.14060745198 0.14060745198 1 4.2e-05 4.2e-05 4.2e-05 1.764e-09
1023	382300 76 0 228 0 0.14060745198 4 0 1 1 1
1024	382376 27 206 206 0.14056545198 0.14056545198 1 20 20 20 400
1025	382403 76 0 207 0 0.14056545198 4 0 1 1 1
1026	382479 494 0 303 0 0.144903284072 20 0 2 4 8
1028	382973 13 0 0 0 0 1 31 31 31 961
1029	382986 27 228 228 0.14060745198 0.14060745198 1 40 40 40 1600
1031	383013 27 228 228 0.14060745198 0.14060745198 1 40 40 40 1600
1032	383040 27 228 228 0.14060745198 0.14060745198 1 40 40 40 1600
1034	383067 27 228 228 0.14060745198 0.14060745198 1 40 40 40 1600
1035	383094 54 84 175 0.105678939406 0.13181486665 2 40 40 80 3200
1037	383148 54 84 175 0.105678939406 0.13181486665 2 40 40 80 3200
1038	383202 54 84 175 0.105678939406 0.13181486665 2 40 40 80 3200
1040	383256 54 84 175 0.105678939406 0.13181486665 2 40 40 80 3200
1045	383310 76 0 228 0 0.14060745198 4 0 1 1 1
1046	383386 33 208 208 0.14056545198 0.14056545198 1 24000000 24000000 24000000 5.76e+14
1049	383419 27 208 208 0.14056545198 0.14056545198 1 40 40 40 1600
1051	383446 54 84 175 0.105678939406 0.13181486665 2 40 40 80 3200
1059	383500 88 0 238 0 0.14060745198 5 0 3 7 17
1060	383588 195 0 303 0 0.144903284072 8 0 3 13 31
1061	383783 104 209 238 0.14056545198 0.14060745198 4 0 2 4 6
1062	383887 37 0 18 0 0.04056545198 2 0 0 0 0
1076	383924 12 0 0 0 0 1 0 0 0 0
1077	383936 12 0 0 0 0 1 0 0 0 0
1078	383948 12 0 0 0 0 1 0 0 0 0
1083	383960 25 7 7 0.005636939406 0.005636939406 1 1 1 1 1
1086	383985 112 0 47 0 0.105636939406 7 0 1 1 1
1087	384097 114 0 47 0 0.105636939406 7 0 320 320 102400
1088	384211 26 47 47 0.105636939406 0.105636939406 1 0 0 0 0
1089	384237 28 45 45 0.105636939406 0.105636939406 1 320 320 320 102400
1090	384265 15 45 45 0.1 0.1 1 0 0 0 0
1091	384280 28 47 47 0.105636939406 0.105636939406 1 320 320 320 102400
1092	384308 15 47 47 0.1 0.1 1 0 0 0 0
1097	384323 32 67 67 0.105678939406 0.105678939406 1 4.2e-05 4.2e-05 4.2e-05 1.764e-09
1098	384355 76 0 67 0 0.105678939406 4 0 1 1 1
1099	384431 27 45 45 0.105636939406 0.105636939406 1 15 15 15 225
1100	384458 76 0 46 0 0.105636939406 4 0 1 1 1
1101	384534 494 0 304 0 0.144903284072 20 0 2 4 8
1103	385028 13 0 0 0 0 1 31 31 31 961
1104	385041 27 67 67 0.105678939406 0.105678939406 1 40 40 40 1600
1106	385068 27 67 67 0.105678939406 0.105678939406 1 40 40 40 1600
1107	385095 27 67 67 0.105678939406 0.105678939406 1 40 40 40 1600
1109	385122 27 67 67 0.105678939406 0.105678939406 1 40 40 40 1600
1110	385149 54 176 245 0.13181486665 0.14060745198 2 40 40 80 3200
1112	385203 54 176 245 0.13181486665 0.14060745198 2 40 40 80 3200
1113	385257 54 176 245 0.13181486665 0.14060745198 2 40 40 80 3200
1115	385311 54 176 245 0.13181486665 0.14060745198 2 40 40 80 3200
1120	385365 76 0 67 0 0.105678939406 4 0 1 1 1
1121	385441 33 47 47 0.105636939406 0.105636939406 1 24000000 24000000 24000000 5.76e+14
1124	385474 27 47 47 0.105636939406 0.105636939406 1 40 40 40 1600
1126	385501 54 176 245 0.13181486665 0.14060745198 2 40 40 80 3200
1134	385555 88 0 77 0 0.105678939406 5 0 3 7 17
1135	385643 195 0 304 0 0.144903284072 8 0 3 13 31
1136	385838 104 48 77 0.105636939406 0.105678939406 4 0 2 4 6
1137	385942 38 0 10 0 0.005636939406 2 0 0 0 0
1151	385980 12 0 0 0 0 1 0 0 0 0
1152	385992 12 0 0 0 0 1 0 0 0 0
1153	386004 12 0 0 0 0 1 0 0 0 0
1158	386016 26 35 35 0.097242301237 0.097242301237 1 1 1 1 1
1161	386042 60 0 0 0 0 5 0 0 0 0
1162	386102 60 0 0 0 0 5 0 0 0 0
1173	386162 24 0 0 0 0 2 0 0 0 0
1175	386186 24 0 0 0 0 2 0 0 0 0
1176	386210 390 0 305 0 0.144903284072 16 0 0 0 0
1178	386600 13 0 0 0 0 1 31 31 31 961
1185	386613 81 85 246 0.105678939406 0.14060745198 3 40 40 120 4800
1187	386694 81 85 246 0.105678939406 0.14060745198 3 40 40 120 4800
1188	386775 81 85 246 0.105678939406 0.14060745198 3 40 40 120 4800
1190	386856 81 85 246 0.105678939406 0.14060745198 3 40 40 120 4800
1195	386937 24 0 0 0 0 2 0 0 0 0
1201	386961 81 85 246 0.105678939406 0.14060745198 3 40 40 120 4800
1209	387042 36 0 0 0 0 3 0 2 2 4
1210	387078 195 0 305 0 0.144903284072 8 1 3 16 40
1212	387273 38 0 38 0 0.097242301237 2 0 0 0 0
1226	387311 12 0 0 0 0 1 0 0 0 0
1227	387323 12 0 0 0 0 1 0 0 0 0
1228	387335 12 0 0 0 0 1 0 0 0 0
1236	387347 60 0 0 0 0 5 0 0 0 0
1237	387407 60 0 0 0 0 5 0 0 0 0
1248	387467 24 0 0 0 0 2 0 0 0 0
1250	387491 24 0 0 0 0 2 0 0 0 0
1251	387515 390 0 306 0 0.144903284072 16 0 0 0 0
1253	387905 13 0 0 0 0 1 31 31 31 961
1260	387918 81 86 247 0.105678939406 0.14060745198 3 40 40 120 4800
1262	387999 81 86 247 0.105678939406 0.14060745198 3 40 40 120 4800
1263	388080 81 86 247 0.105678939406 0.14060745198 3 40 40 120 4800
1265	388161 81 86 247 0.105678939406 0.14060745198 3 40 40 120 4800
1270	388242 24 0 0 0 0 2 0 0 0 0
1276	388266 81 86 247 0.105678939406 0.14060745198 3 40 40 120 4800
1284	388347 36 0 0 0 0 3 0 2 2 4
1285	388383 195 0 306 0 0.144903284072 8 1 3 16 40
1287	388578 12 0 0 0 0 1 0 0 0 0
1301	388590 12 0 0 0 0 1 0 0 0 0
1302	388602 12 0 0 0 0 1 0 0 0 0
1303	388614 12 0 0 0 0 1 0 0 0 0
1308	388626 26 19 19 0.044902459136 0.044902459136 1 1 1 1 1
1311	388652 114 0 289 0 0.144902459136 7 0 1 1 1
1312	388766 116 0 289 0 0.144902459136 7 0 320 320 102400
1313	388882 27 289 289 0.144902459136 0.144902459136 1 0 0 0 0
1314	388909 29 287 287 0.144902459136 0.144902459136 1 320 320 320 102400
1315	388938 16 287 287 0.1 0.1 1 0 0 0 0
1316	388954 29 289 289 0.144902459136 0.144902459136 1 320 320 320 102400
1317	388983 16 289 289 0.1 0.1 1 0 0 0 0
1322	388999 33 309 309 0.144944459136 0.144944459136 1 4.2e-05 4.2e-05 4.2e-05 1.764e-09
1323	389032 78 0 309 0 0.144944459136 4 0 1 1 1
1324	389110 27 287 287 0.144902459136 0.144902459136 1 3 3 3 9
1325	389137 78 0 288 0 0.144902459136 4 0 1 1 1
1326	389215 562 0 310 0 0.144944459136 22 0 2 4 8
1328	389777 13 0 0 0 0 1 31 31 31 961
1329	389790 28 309 309 0.144944459136 0.144944459136 1 40 40 40 1600
1331	389818 28 309 309 0.144944459136 0.144944459136 1 40 40 40 1600
1332	389846 28 309 309 0.144944459136 0.144944459136 1 40 40 40 1600
1334	389874 28 309 309 0.144944459136 0.144944459136 1 40 40 40 1600
1335	389902 84 109 270 0.105679764342 0.140608276916 3 40 40 120 4800
1337	389986 84 109 270 0.105679764342 0.140608276916 3 40 40 120 4800
1338	390070 84 109 270 0.105679764342 0.140608276916 3 40 40 120 4800
1340	390154 84 109 270 0.105679764342 0.140608276916 3 40 40 120 4800
1345	390238 78 0 309 0 0.144944459136 4 0 1 1 1
1346	390316 34 289 289 0.144902459136 0.144902459136 1 24000000 24000000 24000000 5.76e+14
1349	390350 28 289 289 0.144902459136 0.144902459136 1 40 40 40 1600
1351	390378 84 109 270 0.105679764342 0.140608276916 3 40 40 120 4800
1359	390462 90 0 310 0 0.144944459136 5 0 3 7 17
1360	390552 227 0 310 0 0.144944459136 9 0 3 14 32
1361	390779 108 290 310 0.144902459136 0.144944459136 4 0 2 4 6
1362	390887 38 0 22 0 0.044902459136 2 0 0 0 0
1376	390925 12 0 0 0 0 1 0 0 0 0
1377	390937 12 0 0 0 0 1 0 0 0 0
1378	390949 12 0 0 0 0 1 0 0 0 0
11	390961 39 310 310 0.1 0.144944678638 2 0 0 0 0
13	391000 39 310 310 0.1 0.144944678638 2 0 0 0 0
16	391039 39 310 310 0.1 0.144944678638 2 0 0 0 0
17	391078 39 310 310 0.1 0.144944678638 2 0 0 0 0
86	391117 39 310 310 0.1 0.144944678638 2 0 0 0 0
88	391156 39 310 310 0.1 0.144944678638 2 0 0 0 0
91	391195 39 310 310 0.1 0.144944678638 2 0 0 0 0
92	391234 39 310 310 0.1 0.144944678638 2 0 0 0 0
151	391273 41 310 310 0.1 0.144944678638 2 0 0 0 0
165	391314 41 310 310 0.1 0.144944678638 2 0 0 0 0
167	391355 41 310 310 0.1 0.144944678638 2 0 0 0 0
170	391396 41 310 310 0.1 0.144944678638 2 0 0 0 0
171	391437 41 310 310 0.1 0.144944678638 2 0 0 0 0
230	391478 41 310 310 0.1 0.144944678638 2 0 0 0 0
245	391519 40 310 310 0.144944678638 0.144944678638 1 7119.8640127654 7119.8640127654 7119.8640127654 50692463.560271
247	391559 40 310 310 0.144944678638 0.144944678638 1 7119.8640127654 7119.8640127654 7119.8640127654 50692463.560271
250	391599 41 310 310 0.1 0.144944678638 2 0 0 0 0
251	391640 41 310 310 0.1 0.144944678638 2 0 0 0 0
310	391681 41 310 310 0.1 0.144944678638 2 0 0 0 0
325	391722 41 310 310 0.1 0.144944678638 2 0 0 0 0
327	391763 41 310 310 0.1 0.144944678638 2 0 0 0 0
330	391804 41 310 310 0.1 0.144944678638 2 0 0 0 0
331	391845 41 310 310 0.1 0.144944678638 2 0 0 0 0
390	391886 41 310 310 0.1 0.144944678638 2 0 0 0 0
405	391927 41 310 310 0.1 0.144944678638 2 0 0 0 0
407	391968 41 310 310 0.1 0.144944678638 2 0 0 0 0
410	392009 41 310 310 0.1 0.144944678638 2 0 0 0 0
411	392050 41 310 310 0.1 0.144944678638 2 0 0 0 0
470	392091 41 310 310 0.1 0.144944678638 2 0 0 0 0
485	392132 41 310 310 0.1 0.144944678638 2 0 0 0 0
487	392173 41 310 310 0.1 0.144944678638 2 0 0 0 0
490	392214 41 310 310 0.1 0.144944678638 2 0 0 0 0
491	392255 41 310 310 0.1 0.144944678638 2 0 0 0 0
550	392296 41 310 310 0.1 0.144944678638 2 0 0 0 0
565	392337 41 310 310 0.1 0.144944678638 2 0 0 0 0
567	392378 41 310 310 0.1 0.144944678638 2 0 0 0 0
570	392419 41 310 310 0.1 0.144944678638 2 0 0 0 0
571	392460 41 310 310 0.1 0.144944678638 2 0 0 0 0
640	392501 41 310 310 0.1 0.144944678638 2 0 0 0 0
642	392542 41 310 310 0.1 0.144944678638 2 0 0 0 0
645	392583 41 310 310 0.1 0.144944678638 2 0 0 0 0
646	392624 41 310 310 0.1 0.144944678638 2 0 0 0 0
715	392665 41 310 310 0.1 0.144944678638 2 0 0 0 0
717	392706 41 310 310 0.1 0.144944678638 2 0 0 0 0
720	392747 41 310 310 0.1 0.144944678638 2 0 0 0 0
721	392788 41 310 310 0.1 0.144944678638 2 0 0 0 0
790	392829 41 310 310 0.1 0.144944678638 2 0 0 0 0
792	392870 41 310 310 0.1 0.144944678638 2 0 0 0 0
795	392911 41 310 310 0.1 0.144944678638 2 0 0 0 0
796	392952 41 310 310 0.1 0.144944678638 2 0 0 0 0
865	392993 41 310 310 0.1 0.144944678638 2 0 0 0 0
867	393034 41 310 310 0.1 0.144944678638 2 0 0 0 0
870	393075 41 310 310 0.1 0.144944678638 2 0 0 0 0
871	393116 41 310 310 0.1 0.144944678638 2 0 0 0 0
940	393157 41 310 310 0.1 0.144944678638 2 0 0 0 0
942	393198 41 310 310 0.1 0.144944678638 2 0 0 0 0
945	393239 41 310 310 0.1 0.144944678638 2 0 0 0 0
946	393280 41 310 310 0.1 0.144944678638 2 0 0 0 0
1015	393321 41 310 310 0.144944678638 0.144944678638 1 7119.8640127654 7119.8640127654 7119.8640127654 50692463.560271
1017	393362 41 310 310 0.144944678638 0.144944678638 1 7119.8640127654 7119.8640127654 7119.8640127654 50692463.560271
1020	393403 43 310 310 0.1 0.144944678638 2 0 0 0 0
1021	393446 43 310 310 0.1 0.144944678638 2 0 0 0 0
1090	393489 41 310 310 0.144944678638 0.144944678638 1 7119.8640127654 7119.8640127654 7119.8640127654 50692463.560271
1092	393530 41 310 310 0.144944678638 0.144944678638 1 7119.8640127654 7119.8640127654 7119.8640127654 50692463.560271
1095	393571 43 310 310 0.1 0.144944678638 2 0 0 0 0
1096	393614 43 310 310 0.1 0.144944678638 2 0 0 0 0
1165	393657 43 310 310 0.1 0.144944678638 2 0 0 0 0
1167	393700 43 310 310 0.1 0.144944678638 2 0 0 0 0
1170	393743 43 310 310 0.1 0.144944678638 2 0 0 0 0
1171	393786 43 310 310 0.1 0.144944678638 2 0 0 0 0
1240	393829 43 310 310 0.1 0.144944678638 2 0 0 0 0
1242	393872 43 310 310 0.1 0.144944678638 2 0 0 0 0
1245	393915 43 310 310 0.1 0.144944678638 2 0 0 0 0
1246	393958 43 310 310 0.1 0.144944678638 2 0 0 0 0
1315	394001 41 310 310 0.144944678638 0.144944678638 1 7119.8640127654 7119.8640127654 7119.8640127654 50692463.560271
1317	394042 41 310 310 0.144944678638 0.144944678638 1 7119.8640127654 7119.8640127654 7119.8640127654 50692463.560271
1320	394083 43 310 310 0.1 0.144944678638 2 0 0 0 0
1321	394126 43 310 310 0.1 0.144944678638 2 0 0 0 0
1380	394169 43 310 310 0.1 0.144944678638 2 0 0 0 0

