version 3
run General-0-20250518-23:03:36-18996
attr configname General
attr datetime 20250518-23:03:36
attr datetimef 20250518-230336
attr experiment General
attr inifile omnetpp.ini
attr iterationvars ""
attr iterationvarsd ""
attr iterationvarsf ""
attr measurement ""
attr network ned.TrackingSimulation
attr processid 18996
attr repetition 0
attr replication #0
attr resultdir results
attr runnumber 0
attr seedset 0
config image-path ../inet-master/inet-master/images
config network ned.TrackingSimulation
config sim-time-limit 100s
config *.mobility "\"MovingMobilityBase\""
config eventlog-file results/simulation-events.elog
config cmdenv-output-file results/simulation-results.csv
config *.server.app[0].logFile "\"results/tracking_log.csv\""
config **.udpApp[0].typename SensorTrackingApp
config *.visualizerType "\"IntegratedVisualizer\""
config *.radioMedium.backgroundNoise false
config *.radioMedium.pathLossAlpha 2.1
config *.radioMedium.carrierFrequency "2.4 GHz"
config *.radioMedium.transmissionPower 10mW
config *.wlan[*].typename Ieee80211WlanInterface
config *.wlan[*].mac.queueLength 10
config *.configurator.addStaticRoutes true
config *.configurator.routingFile "\"\""
config *.sensor[0].numApps 1
config *.sensor[0].app[0].typename SensorTrackingApp
config *.sensor[0].app[0].destAddress "\"server\""
config *.sensor[0].app[0].destPort 10000
config *.sensor[0].app[0].startTime 1s
config *.sensor[0].app[0].sendInterval 2s
config *.sensor[1..4].numApps 1
config *.sensor[1..4].app[0].typename SensorTrackingApp
config *.sensor[1..4].app[0].destAddress "\"server\""
config *.sensor[1..4].app[0].destPort 10000
config *.sensor[1..4].app[0].startTime 1s
config *.sensor[1..4].app[0].sendInterval "uniform(2s, 5s)"
config *.server.numApps 1
config *.server.app[0].typename TrackingLoggerApp
config *.server.app[0].localPort 10000
config *.server.app[0].interfaceTable "\"interfaceTable\""
config *.monitoringCenter.numApps 1
config *.monitoringCenter.app[0].typename MonitoringCenterApp
config *.monitoringCenter.app[0].localPort 20000
config *.client.mobility.typename StationaryMobility
config *.client.mobility.x 150m
config *.client.mobility.y 150m
config *.server.mobility.typename StationaryMobility
config *.server.mobility.x 95m
config *.server.mobility.y 269m
config *.monitoringCenter.mobility.typename StationaryMobility
config *.monitoringCenter.mobility.x 323m
config *.monitoringCenter.mobility.y 278m
config *.sensor[*].mobility.typename RandomWaypointMobility
config *.sensor[*].mobility.speed "uniform(1mps, 5mps)"
config *.sensor[*].mobility.waitTime "uniform(1s, 3s)"
config *.sensor[*].mobility.constraintAreaMinX 0m
config *.sensor[*].mobility.constraintAreaMinY 0m
config *.sensor[*].mobility.constraintAreaMaxX 800m
config *.sensor[*].mobility.constraintAreaMaxY 600m
config *.sensor[*].mobility.constraintAreaMinZ 0m
config *.sensor[*].mobility.constraintAreaMaxZ 0m
config *.target[*].mobility.typename StationaryMobility
config *.target[*].mobility.x "400m + index * 10m"
config *.target[*].mobility.y 50m
config *.playUnderWater false
config *.updateDisplay true

par TrackingSimulation.configurator typename "\"inet.networklayer.configurator.ipv4.Ipv4NetworkConfigurator\""
par TrackingSimulation.configurator displayStringTextFormat "\"\""
attr mutable ""
par TrackingSimulation.configurator minLinkWeight 0.001
par TrackingSimulation.configurator configureIsolatedNetworksSeparatly false
par TrackingSimulation.configurator config "<config>...</config> at content:1"
par TrackingSimulation.configurator assignAddresses true
par TrackingSimulation.configurator assignUniqueAddresses true
par TrackingSimulation.configurator assignDisjunctSubnetAddresses true
par TrackingSimulation.configurator addStaticRoutes true
par TrackingSimulation.configurator addDefaultRoutes true
par TrackingSimulation.configurator addSubnetRoutes true
par TrackingSimulation.configurator addDirectRoutes true
par TrackingSimulation.configurator optimizeRoutes true
par TrackingSimulation.configurator updateRoutes false
par TrackingSimulation.configurator dumpTopology false
par TrackingSimulation.configurator dumpLinks false
par TrackingSimulation.configurator dumpAddresses false
par TrackingSimulation.configurator dumpRoutes false
par TrackingSimulation.configurator dumpConfig "\"\""
par TrackingSimulation.radioMedium.propagation typename "\"inet.physicallayer.wireless.common.propagation.ConstantSpeedPropagation\""
par TrackingSimulation.radioMedium.propagation displayStringTextFormat "\"\""
attr mutable ""
par TrackingSimulation.radioMedium.propagation propagationSpeed 2.99792e+08mps
attr unit mps
par TrackingSimulation.radioMedium.propagation ignoreMovementDuringTransmission true
par TrackingSimulation.radioMedium.propagation ignoreMovementDuringPropagation true
par TrackingSimulation.radioMedium.propagation ignoreMovementDuringReception true
scalar TrackingSimulation.radioMedium.propagation "Arrival computation count" 68
par TrackingSimulation.radioMedium.analogModel typename "\"inet.physicallayer.wireless.common.analogmodel.scalar.ScalarMediumAnalogModel\""
par TrackingSimulation.radioMedium.analogModel displayStringTextFormat "\"\""
attr mutable ""
par TrackingSimulation.radioMedium.analogModel ignorePartialInterference false
par TrackingSimulation.radioMedium.backgroundNoise typename "\"inet.physicallayer.wireless.common.backgroundnoise.IsotropicScalarBackgroundNoise\""
par TrackingSimulation.radioMedium.backgroundNoise displayStringTextFormat "\"\""
attr mutable ""
par TrackingSimulation.radioMedium.backgroundNoise power -110dBm
attr unit dBm
par TrackingSimulation.radioMedium.backgroundNoise bandwidth "nan Hz"
attr unit Hz
par TrackingSimulation.radioMedium.pathLoss typename "\"inet.physicallayer.wireless.common.pathloss.FreeSpacePathLoss\""
par TrackingSimulation.radioMedium.pathLoss displayStringTextFormat "\"\""
attr mutable ""
par TrackingSimulation.radioMedium.pathLoss alpha 2
par TrackingSimulation.radioMedium.pathLoss systemLoss 0dB
attr unit dB
par TrackingSimulation.radioMedium.mediumLimitCache typename "\"inet.physicallayer.wireless.common.medium.MediumLimitCache\""
par TrackingSimulation.radioMedium.mediumLimitCache displayStringTextFormat "\"\""
attr mutable ""
par TrackingSimulation.radioMedium.mediumLimitCache centerFrequency 2.4e+09Hz
attr unit Hz
par TrackingSimulation.radioMedium.mediumLimitCache maxSpeed "nan mps"
attr unit mps
par TrackingSimulation.radioMedium.mediumLimitCache maxTransmissionPower "nan W"
attr unit W
par TrackingSimulation.radioMedium.mediumLimitCache minInterferencePower -110dBm
attr unit dBm
par TrackingSimulation.radioMedium.mediumLimitCache minReceptionPower -85dBm
attr unit dBm
par TrackingSimulation.radioMedium.mediumLimitCache maxAntennaGain 0dB
attr unit dB
par TrackingSimulation.radioMedium.mediumLimitCache minInterferenceTime 1e-12s
attr unit s
par TrackingSimulation.radioMedium.mediumLimitCache maxTransmissionDuration 0.01s
attr unit s
par TrackingSimulation.radioMedium.mediumLimitCache maxCommunicationRange "nan m"
attr unit m
par TrackingSimulation.radioMedium.mediumLimitCache maxInterferenceRange "nan m"
attr unit m
par TrackingSimulation.radioMedium.communicationCache typename "\"inet.physicallayer.wireless.common.communicationcache.VectorCommunicationCache\""
par TrackingSimulation.radioMedium.communicationCache displayStringTextFormat "\"\""
attr mutable ""
par TrackingSimulation.radioMedium typename "\"inet.physicallayer.wireless.ieee80211.packetlevel.Ieee80211ScalarRadioMedium\""
par TrackingSimulation.radioMedium displayStringTextFormat "\"\""
attr mutable ""
par TrackingSimulation.radioMedium physicalEnvironmentModule "\"physicalEnvironment\""
par TrackingSimulation.radioMedium signalAnalogRepresentation "\"scalar\""
attr enum unitDisk,scalar,dimensional
par TrackingSimulation.radioMedium rangeFilter "\"\""
par TrackingSimulation.radioMedium radioModeFilter false
par TrackingSimulation.radioMedium listeningFilter false
par TrackingSimulation.radioMedium macAddressFilter false
par TrackingSimulation.radioMedium recordTransmissionLog false
par TrackingSimulation.radioMedium recordReceptionLog false
par TrackingSimulation.radioMedium sameTransmissionStartTimeCheck "\"error\""
attr enum ignore,warning,error
scalar TrackingSimulation.radioMedium "transmission count" 4
scalar TrackingSimulation.radioMedium "signal send count" 68
scalar TrackingSimulation.radioMedium "reception computation count" 68
scalar TrackingSimulation.radioMedium "interference computation count" 210
scalar TrackingSimulation.radioMedium "reception decision computation count" 51
scalar TrackingSimulation.radioMedium "listening decision computation count" 91
scalar TrackingSimulation.radioMedium "reception cache hit" 83.333333333333
attr unit %
scalar TrackingSimulation.radioMedium "interference cache hit" 66.666666666667
attr unit %
scalar TrackingSimulation.radioMedium "noise cache hit" 0
attr unit %
scalar TrackingSimulation.radioMedium "snir cache hit" 50
attr unit %
scalar TrackingSimulation.radioMedium "reception decision cache hit" 50
attr unit %
scalar TrackingSimulation.radioMedium "reception result cache hit" 0
attr unit %
par TrackingSimulation.client.radioIn[0].channel typename "\"ned.IdealChannel\""
par TrackingSimulation.client.mobility typename "\"inet.mobility.static.StationaryMobility\""
par TrackingSimulation.client.mobility displayStringTextFormat "\"p: %p\\nv: %v\""
attr mutable ""
par TrackingSimulation.client.mobility subjectModule "\"^\""
par TrackingSimulation.client.mobility coordinateSystemModule "\"\""
par TrackingSimulation.client.mobility updateDisplayString true
par TrackingSimulation.client.mobility constraintAreaMinX "-inf m"
attr unit m
par TrackingSimulation.client.mobility constraintAreaMinY "-inf m"
attr unit m
par TrackingSimulation.client.mobility constraintAreaMinZ "-inf m"
attr unit m
par TrackingSimulation.client.mobility constraintAreaMaxX "inf m"
attr unit m
par TrackingSimulation.client.mobility constraintAreaMaxY "inf m"
attr unit m
par TrackingSimulation.client.mobility constraintAreaMaxZ "inf m"
attr unit m
par TrackingSimulation.client.mobility initialX "nan m"
attr unit m
par TrackingSimulation.client.mobility initialY "nan m"
attr unit m
par TrackingSimulation.client.mobility initialZ 0m
attr unit m
par TrackingSimulation.client.mobility initialLatitude "nan deg"
attr unit deg
par TrackingSimulation.client.mobility initialLongitude "nan deg"
attr unit deg
par TrackingSimulation.client.mobility initialAltitude 0m
attr unit m
par TrackingSimulation.client.mobility initialHeading 0deg
attr unit deg
par TrackingSimulation.client.mobility initialElevation 0deg
attr unit deg
par TrackingSimulation.client.mobility initialBank 0deg
attr unit deg
par TrackingSimulation.client.mobility initFromDisplayString true
par TrackingSimulation.client.mobility updateFromDisplayString true
par TrackingSimulation.client.interfaceTable typename "\"inet.networklayer.common.InterfaceTable\""
par TrackingSimulation.client.interfaceTable displayStringTextFormat "\"\""
attr mutable ""
par TrackingSimulation.client.interfaceTable displayAddresses false
par TrackingSimulation.client.cb typename "\"inet.common.MessageDispatcher\""
par TrackingSimulation.client.cb displayStringTextFormat "\"processed %p pk (%l)\""
attr mutable ""
par TrackingSimulation.client.cb interfaceTableModule "\"TrackingSimulation.client.interfaceTable\""
par TrackingSimulation.client.cb forwardServiceRegistration true
par TrackingSimulation.client.cb forwardProtocolRegistration true
par TrackingSimulation.client.cb interfaceMapping {}
par TrackingSimulation.client.cb serviceMapping {}
par TrackingSimulation.client.cb protocolMapping {}
par TrackingSimulation.client.bl typename "\"inet.common.MessageDispatcher\""
par TrackingSimulation.client.bl displayStringTextFormat "\"processed %p pk (%l)\""
attr mutable ""
par TrackingSimulation.client.bl interfaceTableModule "\"TrackingSimulation.client.interfaceTable\""
par TrackingSimulation.client.bl forwardServiceRegistration true
par TrackingSimulation.client.bl forwardProtocolRegistration true
par TrackingSimulation.client.bl interfaceMapping {}
par TrackingSimulation.client.bl serviceMapping {}
par TrackingSimulation.client.bl protocolMapping {}
par TrackingSimulation.client.li typename "\"inet.common.MessageDispatcher\""
par TrackingSimulation.client.li displayStringTextFormat "\"processed %p pk (%l)\""
attr mutable ""
par TrackingSimulation.client.li interfaceTableModule "\"TrackingSimulation.client.interfaceTable\""
par TrackingSimulation.client.li forwardServiceRegistration true
par TrackingSimulation.client.li forwardProtocolRegistration true
par TrackingSimulation.client.li interfaceMapping {}
par TrackingSimulation.client.li serviceMapping {}
par TrackingSimulation.client.li protocolMapping {}
par TrackingSimulation.client.lo[0].upperLayerIn.channel typename "\"ned.IdealChannel\""
par TrackingSimulation.client.lo[0].lo.upperLayerOut.channel typename "\"ned.IdealChannel\""
par TrackingSimulation.client.lo[0].lo typename "\"inet.linklayer.loopback.Loopback\""
par TrackingSimulation.client.lo[0].lo displayStringTextFormat "\"\""
attr mutable ""
par TrackingSimulation.client.lo[0].lo interfaceTableModule "\"TrackingSimulation.client.interfaceTable\""
par TrackingSimulation.client.lo[0].lo mtu 4470B
attr unit B
scalar TrackingSimulation.client.lo[0].lo rcvdPkFromHl:count 0
attr interpolationmode none
attr recordingmode count
attr source packetReceivedFromUpper
attr title "packets received from higher layer, count"
scalar TrackingSimulation.client.lo[0].lo rcvdPkFromHl:sum(packetBytes) 0
attr interpolationmode none
attr recordingmode sum(packetBytes)
attr source packetReceivedFromUpper
attr title "packets received from higher layer, sum(packetBytes)"
scalar TrackingSimulation.client.lo[0].lo passedUpPk:count 0
attr interpolationmode none
attr recordingmode count
attr source packetSentToUpper
attr title "packets passed to higher layer, count"
scalar TrackingSimulation.client.lo[0].lo passedUpPk:sum(packetBytes) 0
attr interpolationmode none
attr recordingmode sum(packetBytes)
attr source packetSentToUpper
attr title "packets passed to higher layer, sum(packetBytes)"
par TrackingSimulation.client.lo[0] typename "\"inet.linklayer.loopback.LoopbackInterface\""
par TrackingSimulation.client.lo[0] displayStringTextFormat "\"%a (%i)\\n%m\""
attr mutable ""
par TrackingSimulation.client.lo[0] recordPcap false
par TrackingSimulation.client.lo[0] numPcapRecorders 0
par TrackingSimulation.client.lo[0] interfaceTableModule "\"TrackingSimulation.client.interfaceTable\""
scalar TrackingSimulation.client.lo[0] packetDropInterfaceDown:count 0
attr interpolationmode none
attr recordingmode count
attr source packetDropReasonIsInterfaceDown(packetDropped)
attr title "packet drops: interface down, count"
scalar TrackingSimulation.client.lo[0] packetDropInterfaceDown:sum(packetBytes) 0
attr interpolationmode none
attr recordingmode sum(packetBytes)
attr source packetDropReasonIsInterfaceDown(packetDropped)
attr title "packet drops: interface down, sum(packetBytes)"
scalar TrackingSimulation.client.lo[0] packetDropNoCarrier:count 0
attr interpolationmode none
attr recordingmode count
attr source packetDropReasonIsNoCarrier(packetDropped)
attr title "packet drops: no carrier, count"
scalar TrackingSimulation.client.lo[0] packetDropNoCarrier:sum(packetBytes) 0
attr interpolationmode none
attr recordingmode sum(packetBytes)
attr source packetDropReasonIsNoCarrier(packetDropped)
attr title "packet drops: no carrier, sum(packetBytes)"
par TrackingSimulation.client.wlan[0].radioIn.channel typename "\"ned.IdealChannel\""
par TrackingSimulation.client.wlan[0].llc.upperLayerOut.channel typename "\"ned.IdealChannel\""
par TrackingSimulation.client.wlan[0].upperLayerIn.channel typename "\"ned.IdealChannel\""
par TrackingSimulation.client.wlan[0].mib typename "\"inet.linklayer.ieee80211.mib.Ieee80211Mib\""
par TrackingSimulation.client.wlan[0].mib displayStringTextFormat "\"\""
attr mutable ""
par TrackingSimulation.client.wlan[0].llc typename "\"inet.linklayer.ieee80211.llc.Ieee80211LlcLpd\""
par TrackingSimulation.client.wlan[0].llc displayStringTextFormat "\"\""
attr mutable ""
par TrackingSimulation.client.wlan[0].llc registerProtocol false
par TrackingSimulation.client.wlan[0].agent typename "\"inet.linklayer.ieee80211.mgmt.Ieee80211AgentSta\""
par TrackingSimulation.client.wlan[0].agent displayStringTextFormat "\"\""
attr mutable ""
par TrackingSimulation.client.wlan[0].agent interfaceTableModule "\"TrackingSimulation.client.interfaceTable\""
par TrackingSimulation.client.wlan[0].agent mibModule "\"TrackingSimulation.client.wlan[0].mib\""
par TrackingSimulation.client.wlan[0].agent activeScan true
par TrackingSimulation.client.wlan[0].agent channelsToScan "\"\""
par TrackingSimulation.client.wlan[0].agent probeDelay 0.1s
attr unit s
par TrackingSimulation.client.wlan[0].agent minChannelTime 0.15s
attr unit s
par TrackingSimulation.client.wlan[0].agent maxChannelTime 0.3s
attr unit s
par TrackingSimulation.client.wlan[0].agent authenticationTimeout 5s
attr unit s
par TrackingSimulation.client.wlan[0].agent associationTimeout 5s
attr unit s
par TrackingSimulation.client.wlan[0].agent startingTime -1s
attr unit s
par TrackingSimulation.client.wlan[0].agent defaultSsid "\"\""
scalar TrackingSimulation.client.wlan[0].agent dropConfirm:count 0
attr recordingmode count
attr title "dropped confirms, count"
scalar TrackingSimulation.client.wlan[0].agent acceptConfirm:count 0
attr recordingmode count
attr title "accepted confirms, count"
scalar TrackingSimulation.client.wlan[0].agent sentRequest:count 0
attr recordingmode count
attr title "sent requests, count"
par TrackingSimulation.client.wlan[0].mgmt typename "\"inet.linklayer.ieee80211.mgmt.Ieee80211MgmtSta\""
par TrackingSimulation.client.wlan[0].mgmt displayStringTextFormat "\"\""
attr mutable ""
par TrackingSimulation.client.wlan[0].mgmt interfaceTableModule "\"TrackingSimulation.client.interfaceTable\""
par TrackingSimulation.client.wlan[0].mgmt numChannels 1
par TrackingSimulation.client.wlan[0].mgmt mibModule "\"TrackingSimulation.client.wlan[0].mib\""
par TrackingSimulation.client.wlan[0].mgmt macModule "\"TrackingSimulation.client.wlan[0].mac\""
par TrackingSimulation.client.wlan[0].mac.dcf.channelAccess.pendingQueue typename "\"inet.linklayer.ieee80211.mac.queue.PendingQueue\""
par TrackingSimulation.client.wlan[0].mac.dcf.channelAccess.pendingQueue displayStringTextFormat "\"contains %p pk (%l) pushed %u\\npulled %o removed %r dropped %d\""
attr mutable ""
par TrackingSimulation.client.wlan[0].mac.dcf.channelAccess.pendingQueue packetCapacity 100
par TrackingSimulation.client.wlan[0].mac.dcf.channelAccess.pendingQueue dataCapacity -1b
attr unit b
par TrackingSimulation.client.wlan[0].mac.dcf.channelAccess.pendingQueue dropperClass "\"inet::queueing::PacketAtCollectionEndDropper\""
par TrackingSimulation.client.wlan[0].mac.dcf.channelAccess.pendingQueue comparatorClass "\"inet::ieee80211::MgmtOverDataComparator\""
par TrackingSimulation.client.wlan[0].mac.dcf.channelAccess.pendingQueue bufferModule "\"\""
scalar TrackingSimulation.client.wlan[0].mac.dcf.channelAccess.pendingQueue queueLength:last 0
attr autoWarmupFilter false
attr interpolationmode sample-hold
attr recordingmode last
attr source "warmup(atomic(constant0(packetPushEnded) + count(packetPushStarted) - count(packetPulled) - count(packetRemoved) - count(packetDropped)))"
attr title "queue length, last"
attr unit pk
scalar TrackingSimulation.client.wlan[0].mac.dcf.channelAccess.pendingQueue queueLength:max 0
attr autoWarmupFilter false
attr interpolationmode sample-hold
attr recordingmode max
attr source "warmup(atomic(constant0(packetPushEnded) + count(packetPushStarted) - count(packetPulled) - count(packetRemoved) - count(packetDropped)))"
attr title "queue length, max"
attr unit pk
scalar TrackingSimulation.client.wlan[0].mac.dcf.channelAccess.pendingQueue queueLength:timeavg 0
attr autoWarmupFilter false
attr interpolationmode sample-hold
attr recordingmode timeavg
attr source "warmup(atomic(constant0(packetPushEnded) + count(packetPushStarted) - count(packetPulled) - count(packetRemoved) - count(packetDropped)))"
attr title "queue length, timeavg"
attr unit pk
scalar TrackingSimulation.client.wlan[0].mac.dcf.channelAccess.pendingQueue queueBitLength:last 0
attr autoWarmupFilter false
attr interpolationmode sample-hold
attr recordingmode last
attr source "warmup(atomic(constant0(packetPushEnded) + sum(packetLength(packetPushStarted)) - sum(packetLength(packetPulled)) - sum(packetLength(packetRemoved)) - sum(packetLength(packetDropped))))"
attr title "queue bit length, last"
attr unit b
scalar TrackingSimulation.client.wlan[0].mac.dcf.channelAccess.pendingQueue queueBitLength:max 0
attr autoWarmupFilter false
attr interpolationmode sample-hold
attr recordingmode max
attr source "warmup(atomic(constant0(packetPushEnded) + sum(packetLength(packetPushStarted)) - sum(packetLength(packetPulled)) - sum(packetLength(packetRemoved)) - sum(packetLength(packetDropped))))"
attr title "queue bit length, max"
attr unit b
scalar TrackingSimulation.client.wlan[0].mac.dcf.channelAccess.pendingQueue queueBitLength:timeavg 0
attr autoWarmupFilter false
attr interpolationmode sample-hold
attr recordingmode timeavg
attr source "warmup(atomic(constant0(packetPushEnded) + sum(packetLength(packetPushStarted)) - sum(packetLength(packetPulled)) - sum(packetLength(packetRemoved)) - sum(packetLength(packetDropped))))"
attr title "queue bit length, timeavg"
attr unit b
statistic TrackingSimulation.client.wlan[0].mac.dcf.channelAccess.pendingQueue queueingTime:histogram
field count 0
field mean nan
field stddev nan
field min nan
field max nan
field sum 0
field sqrsum 0
attr interpolationmode none
attr recordingmode histogram
attr source queueingTime(packetPulled)
attr title "queueing times"
attr unit s
bin	-inf	0
bin	0	0
bin	1	0
scalar TrackingSimulation.client.wlan[0].mac.dcf.channelAccess.pendingQueue outgoingPackets:count 0
attr recordingmode count
attr source packetPulled
attr title "outgoing packets, count"
attr unit pk
scalar TrackingSimulation.client.wlan[0].mac.dcf.channelAccess.pendingQueue outgoingPacketLengths:sum 0
attr interpolationmode none
attr recordingmode sum
attr source packetLength(packetPulled)
attr title "outgoing packet lengths, sum"
attr unit b
statistic TrackingSimulation.client.wlan[0].mac.dcf.channelAccess.pendingQueue outgoingPacketLengths:histogram
field count 0
field mean nan
field stddev nan
field min nan
field max nan
field sum 0
field sqrsum 0
attr interpolationmode none
attr recordingmode histogram
attr source packetLength(packetPulled)
attr title "outgoing packet lengths"
attr unit b
bin	-inf	0
bin	0	0
bin	1	0
statistic TrackingSimulation.client.wlan[0].mac.dcf.channelAccess.pendingQueue flowQueueingTime:histogram
field count 0
field mean nan
field stddev nan
field min nan
field max nan
field sum 0
field sqrsum 0
attr interpolationmode none
attr recordingmode histogram
attr source queueingTime(demuxFlow(packetPulled))
attr title "flow queueing times"
attr unit s
bin	-inf	0
bin	0	0
bin	1	0
scalar TrackingSimulation.client.wlan[0].mac.dcf.channelAccess.pendingQueue incomingPackets:count 0
attr recordingmode count
attr source packetPushStarted
attr title "incoming packets, count"
attr unit pk
scalar TrackingSimulation.client.wlan[0].mac.dcf.channelAccess.pendingQueue incomingPacketLengths:sum 0
attr interpolationmode none
attr recordingmode sum
attr source packetLength(packetPushStarted)
attr title "incoming packet lengths, sum"
attr unit b
statistic TrackingSimulation.client.wlan[0].mac.dcf.channelAccess.pendingQueue incomingPacketLengths:histogram
field count 0
field mean nan
field stddev nan
field min nan
field max nan
field sum 0
field sqrsum 0
attr interpolationmode none
attr recordingmode histogram
attr source packetLength(packetPushStarted)
attr title "incoming packet lengths"
attr unit b
bin	-inf	0
bin	0	0
bin	1	0
scalar TrackingSimulation.client.wlan[0].mac.dcf.channelAccess.pendingQueue droppedPacketsQueueOverflow:count 0
attr interpolationmode none
attr recordingmode count
attr source packetDropReasonIsQueueOverflow(packetDropped)
attr title "dropped packets: queue overflow, count"
attr unit pk
scalar TrackingSimulation.client.wlan[0].mac.dcf.channelAccess.pendingQueue droppedPacketLengthsQueueOverflow:sum 0
attr interpolationmode none
attr recordingmode sum
attr source packetLength(packetDropReasonIsQueueOverflow(packetDropped))
attr title "dropped packet lengths: queue overflow, sum"
attr unit b
par TrackingSimulation.client.wlan[0].mac.dcf.channelAccess.inProgressFrames typename "\"inet.linklayer.ieee80211.mac.queue.InProgressFrames\""
par TrackingSimulation.client.wlan[0].mac.dcf.channelAccess.inProgressFrames displayStringTextFormat "\"\""
attr mutable ""
par TrackingSimulation.client.wlan[0].mac.dcf.channelAccess.inProgressFrames pendingQueueModule "\"^.pendingQueue\""
par TrackingSimulation.client.wlan[0].mac.dcf.channelAccess.inProgressFrames originatorMacDataServiceModule "\"^.^.originatorMacDataService\""
par TrackingSimulation.client.wlan[0].mac.dcf.channelAccess.inProgressFrames ackHandlerModule "\"^.^.ackHandler\""
statistic TrackingSimulation.client.wlan[0].mac.dcf.channelAccess.inProgressFrames queueingTime:histogram
field count 0
field mean nan
field stddev nan
field min nan
field max nan
field sum 0
field sqrsum 0
attr interpolationmode none
attr recordingmode histogram
attr source queueingTime(packetDequeued)
attr title "queueing times"
bin	-inf	0
bin	0	0
bin	1	0
scalar TrackingSimulation.client.wlan[0].mac.dcf.channelAccess.inProgressFrames queueLength:max 0
attr autoWarmupFilter false
attr interpolationmode sample-hold
attr recordingmode max
attr source "warmup(count(packetEnqueued) - count(packetDequeued))"
attr title "queue length, max"
scalar TrackingSimulation.client.wlan[0].mac.dcf.channelAccess.inProgressFrames queueLength:timeavg 0
attr autoWarmupFilter false
attr interpolationmode sample-hold
attr recordingmode timeavg
attr source "warmup(count(packetEnqueued) - count(packetDequeued))"
attr title "queue length, timeavg"
par TrackingSimulation.client.wlan[0].mac.dcf.channelAccess.contention typename "\"inet.linklayer.ieee80211.mac.contention.Contention\""
par TrackingSimulation.client.wlan[0].mac.dcf.channelAccess.contention displayStringTextFormat "\"\""
attr mutable ""
par TrackingSimulation.client.wlan[0].mac.dcf.channelAccess.contention initialChannelBusy true
par TrackingSimulation.client.wlan[0].mac.dcf.channelAccess.contention backoffOptimization true
scalar TrackingSimulation.client.wlan[0].mac.dcf.channelAccess.contention channelAccessGranted:count 0
attr recordingmode count
attr title "channel access granted, count"
scalar TrackingSimulation.client.wlan[0].mac.dcf.channelAccess.contention stateChanged:count 16
attr enum IDLE,DEFER,IFS_AND_BACKOFF
attr interpolationmode none
attr recordingmode count
attr title "contention state changed, count"
attr type enum
par TrackingSimulation.client.wlan[0].mac.dcf.channelAccess typename "\"inet.linklayer.ieee80211.mac.channelaccess.Dcaf\""
par TrackingSimulation.client.wlan[0].mac.dcf.channelAccess displayStringTextFormat "\"\""
attr mutable ""
par TrackingSimulation.client.wlan[0].mac.dcf.channelAccess difsn -1
par TrackingSimulation.client.wlan[0].mac.dcf.channelAccess cwMin -1
par TrackingSimulation.client.wlan[0].mac.dcf.channelAccess cwMax -1
par TrackingSimulation.client.wlan[0].mac.dcf.channelAccess rxModule "\"^.^.rx\""
scalar TrackingSimulation.client.wlan[0].mac.dcf.channelAccess channelOwnershipChanged:count 0
attr interpolationmode sample-hold
attr recordingmode count
attr title "channel ownership, count"
par TrackingSimulation.client.wlan[0].mac.dcf.originatorMacDataService.fragmentationPolicy typename "\"inet.linklayer.ieee80211.mac.fragmentation.BasicFragmentationPolicy\""
par TrackingSimulation.client.wlan[0].mac.dcf.originatorMacDataService.fragmentationPolicy displayStringTextFormat "\"\""
attr mutable ""
par TrackingSimulation.client.wlan[0].mac.dcf.originatorMacDataService.fragmentationPolicy fragmentationThreshold 1500B
attr unit B
par TrackingSimulation.client.wlan[0].mac.dcf.originatorMacDataService typename "\"inet.linklayer.ieee80211.mac.originator.OriginatorMacDataService\""
par TrackingSimulation.client.wlan[0].mac.dcf.originatorMacDataService displayStringTextFormat "\"\""
attr mutable ""
scalar TrackingSimulation.client.wlan[0].mac.dcf.originatorMacDataService packetAggregated:count 0
attr recordingmode count
attr title "packets aggregated, count"
scalar TrackingSimulation.client.wlan[0].mac.dcf.originatorMacDataService packetFragmented:count 0
attr recordingmode count
attr title "packets fragmented, count"
par TrackingSimulation.client.wlan[0].mac.dcf.recipientMacDataService typename "\"inet.linklayer.ieee80211.mac.recipient.RecipientMacDataService\""
par TrackingSimulation.client.wlan[0].mac.dcf.recipientMacDataService displayStringTextFormat "\"\""
attr mutable ""
scalar TrackingSimulation.client.wlan[0].mac.dcf.recipientMacDataService packetDropDuplicateDetected:count 0
attr interpolationmode none
attr recordingmode count
attr source packetDropReasonIsDuplicateDetected(packetDropped)
attr title "packet drops: duplicate detected, count"
scalar TrackingSimulation.client.wlan[0].mac.dcf.recipientMacDataService packetDropDuplicateDetected:sum(packetBytes) 0
attr interpolationmode none
attr recordingmode sum(packetBytes)
attr source packetDropReasonIsDuplicateDetected(packetDropped)
attr title "packet drops: duplicate detected, sum(packetBytes)"
scalar TrackingSimulation.client.wlan[0].mac.dcf.recipientMacDataService packetDeaggregated:count 0
attr recordingmode count
attr title "packets deaggregated, count"
scalar TrackingSimulation.client.wlan[0].mac.dcf.recipientMacDataService packetDefragmented:count 3
attr recordingmode count
attr title "packets defragmented, count"
par TrackingSimulation.client.wlan[0].mac.dcf.rateSelection typename "\"inet.linklayer.ieee80211.mac.rateselection.RateSelection\""
par TrackingSimulation.client.wlan[0].mac.dcf.rateSelection displayStringTextFormat "\"\""
attr mutable ""
par TrackingSimulation.client.wlan[0].mac.dcf.rateSelection rateControlModule "\"^.rateControl\""
par TrackingSimulation.client.wlan[0].mac.dcf.rateSelection multicastFrameBitrate -1bps
attr unit bps
par TrackingSimulation.client.wlan[0].mac.dcf.rateSelection responseAckFrameBitrate -1bps
attr unit bps
par TrackingSimulation.client.wlan[0].mac.dcf.rateSelection responseCtsFrameBitrate -1bps
attr unit bps
par TrackingSimulation.client.wlan[0].mac.dcf.rateSelection dataFrameBitrate -1bps
attr unit bps
par TrackingSimulation.client.wlan[0].mac.dcf.rateSelection dataFrameBandwidth "nan Hz"
attr unit Hz
par TrackingSimulation.client.wlan[0].mac.dcf.rateSelection dataFrameNumSpatialStreams -1
par TrackingSimulation.client.wlan[0].mac.dcf.rateSelection mgmtFrameBitrate -1bps
attr unit bps
par TrackingSimulation.client.wlan[0].mac.dcf.rateSelection controlFrameBitrate -1bps
attr unit bps
par TrackingSimulation.client.wlan[0].mac.dcf.recoveryProcedure typename "\"inet.linklayer.ieee80211.mac.originator.NonQosRecoveryProcedure\""
par TrackingSimulation.client.wlan[0].mac.dcf.recoveryProcedure displayStringTextFormat "\"\""
attr mutable ""
par TrackingSimulation.client.wlan[0].mac.dcf.recoveryProcedure cwCalculatorModule "\"^.channelAccess\""
par TrackingSimulation.client.wlan[0].mac.dcf.recoveryProcedure rtsPolicyModule "\"^.rtsPolicy\""
par TrackingSimulation.client.wlan[0].mac.dcf.recoveryProcedure shortRetryLimit 7
par TrackingSimulation.client.wlan[0].mac.dcf.recoveryProcedure longRetryLimit 4
scalar TrackingSimulation.client.wlan[0].mac.dcf.recoveryProcedure retryLimitReached:count 0
attr recordingmode count
attr title "retry limit reached, count"
par TrackingSimulation.client.wlan[0].mac.dcf.originatorProtectionMechanism typename "\"inet.linklayer.ieee80211.mac.protectionmechanism.OriginatorProtectionMechanism\""
par TrackingSimulation.client.wlan[0].mac.dcf.originatorProtectionMechanism displayStringTextFormat "\"\""
attr mutable ""
par TrackingSimulation.client.wlan[0].mac.dcf.originatorProtectionMechanism rateSelectionModule "\"^.rateSelection\""
par TrackingSimulation.client.wlan[0].mac.dcf.ackHandler typename "\"inet.linklayer.ieee80211.mac.originator.AckHandler\""
par TrackingSimulation.client.wlan[0].mac.dcf.ackHandler displayStringTextFormat "\"\""
attr mutable ""
par TrackingSimulation.client.wlan[0].mac.dcf.originatorAckPolicy typename "\"inet.linklayer.ieee80211.mac.originator.OriginatorAckPolicy\""
par TrackingSimulation.client.wlan[0].mac.dcf.originatorAckPolicy displayStringTextFormat "\"\""
attr mutable ""
par TrackingSimulation.client.wlan[0].mac.dcf.originatorAckPolicy rateSelectionModule "\"^.rateSelection\""
par TrackingSimulation.client.wlan[0].mac.dcf.originatorAckPolicy ackTimeout -1s
attr unit s
par TrackingSimulation.client.wlan[0].mac.dcf.recipientAckPolicy typename "\"inet.linklayer.ieee80211.mac.recipient.RecipientAckPolicy\""
par TrackingSimulation.client.wlan[0].mac.dcf.recipientAckPolicy displayStringTextFormat "\"\""
attr mutable ""
par TrackingSimulation.client.wlan[0].mac.dcf.recipientAckPolicy rateSelectionModule "\"^.rateSelection\""
par TrackingSimulation.client.wlan[0].mac.dcf.rtsPolicy typename "\"inet.linklayer.ieee80211.mac.originator.RtsPolicy\""
par TrackingSimulation.client.wlan[0].mac.dcf.rtsPolicy displayStringTextFormat "\"\""
attr mutable ""
par TrackingSimulation.client.wlan[0].mac.dcf.rtsPolicy rateSelectionModule "\"^.rateSelection\""
par TrackingSimulation.client.wlan[0].mac.dcf.rtsPolicy ctsTimeout -1s
attr unit s
par TrackingSimulation.client.wlan[0].mac.dcf.rtsPolicy rtsThreshold 2346B
attr unit B
par TrackingSimulation.client.wlan[0].mac.dcf.ctsPolicy typename "\"inet.linklayer.ieee80211.mac.recipient.CtsPolicy\""
par TrackingSimulation.client.wlan[0].mac.dcf.ctsPolicy displayStringTextFormat "\"\""
attr mutable ""
par TrackingSimulation.client.wlan[0].mac.dcf.ctsPolicy rxModule "\"^.^.rx\""
par TrackingSimulation.client.wlan[0].mac.dcf.ctsPolicy rateSelectionModule "\"^.rateSelection\""
par TrackingSimulation.client.wlan[0].mac.dcf typename "\"inet.linklayer.ieee80211.mac.coordinationfunction.Dcf\""
par TrackingSimulation.client.wlan[0].mac.dcf displayStringTextFormat "\"\""
attr mutable ""
par TrackingSimulation.client.wlan[0].mac.dcf rxModule "\"^.rx\""
par TrackingSimulation.client.wlan[0].mac.dcf txModule "\"^.tx\""
scalar TrackingSimulation.client.wlan[0].mac.dcf packetReceivedFromPeer:count 3
attr interpolationmode none
attr recordingmode count
attr title "packets received, count"
scalar TrackingSimulation.client.wlan[0].mac.dcf packetReceivedFromPeer:sum(packetBytes) 120
attr interpolationmode none
attr recordingmode sum(packetBytes)
attr title "packets received, sum(packetBytes)"
scalar TrackingSimulation.client.wlan[0].mac.dcf packetReceivedFromPeerUnicast:count 0
attr interpolationmode none
attr recordingmode count
attr source ieee80211Unicast(packetReceivedFromPeer)
attr title "packets received: unicast, count"
scalar TrackingSimulation.client.wlan[0].mac.dcf packetReceivedFromPeerUnicast:sum(packetBytes) 0
attr interpolationmode none
attr recordingmode sum(packetBytes)
attr source ieee80211Unicast(packetReceivedFromPeer)
attr title "packets received: unicast, sum(packetBytes)"
scalar TrackingSimulation.client.wlan[0].mac.dcf packetReceivedFromPeerMulticast:count 3
attr interpolationmode none
attr recordingmode count
attr source ieee80211Multicast(packetReceivedFromPeer)
attr title "packets received: multicast, count"
scalar TrackingSimulation.client.wlan[0].mac.dcf packetReceivedFromPeerMulticast:sum(packetBytes) 120
attr interpolationmode none
attr recordingmode sum(packetBytes)
attr source ieee80211Multicast(packetReceivedFromPeer)
attr title "packets received: multicast, sum(packetBytes)"
scalar TrackingSimulation.client.wlan[0].mac.dcf packetReceivedFromPeerBroadcast:count 3
attr interpolationmode none
attr recordingmode count
attr source ieee80211Broadcast(packetReceivedFromPeer)
attr title "packets received: broadcast, count"
scalar TrackingSimulation.client.wlan[0].mac.dcf packetReceivedFromPeerBroadcast:sum(packetBytes) 120
attr interpolationmode none
attr recordingmode sum(packetBytes)
attr source ieee80211Broadcast(packetReceivedFromPeer)
attr title "packets received: broadcast, sum(packetBytes)"
scalar TrackingSimulation.client.wlan[0].mac.dcf packetReceivedFromPeerWithRetry:count 0
attr interpolationmode none
attr recordingmode count
attr source ieee80211Retry(packetReceivedFromPeer)
attr title "packets received: with retry, count"
scalar TrackingSimulation.client.wlan[0].mac.dcf packetReceivedFromPeerWithRetry:sum(packetBytes) 0
attr interpolationmode none
attr recordingmode sum(packetBytes)
attr source ieee80211Retry(packetReceivedFromPeer)
attr title "packets received: with retry, sum(packetBytes)"
scalar TrackingSimulation.client.wlan[0].mac.dcf packetReceivedFromPeerWithoutRetry:count 3
attr interpolationmode none
attr recordingmode count
attr source ieee80211NotRetry(packetReceivedFromPeer)
attr title "packets received: without retry, count"
scalar TrackingSimulation.client.wlan[0].mac.dcf packetReceivedFromPeerWithoutRetry:sum(packetBytes) 120
attr interpolationmode none
attr recordingmode sum(packetBytes)
attr source ieee80211NotRetry(packetReceivedFromPeer)
attr title "packets received: without retry, sum(packetBytes)"
scalar TrackingSimulation.client.wlan[0].mac.dcf packetSentToPeer:count 0
attr interpolationmode none
attr recordingmode count
attr title "packets sent, count"
scalar TrackingSimulation.client.wlan[0].mac.dcf packetSentToPeer:sum(packetBytes) 0
attr interpolationmode none
attr recordingmode sum(packetBytes)
attr title "packets sent, sum(packetBytes)"
scalar TrackingSimulation.client.wlan[0].mac.dcf packetSentToPeerUnicast:count 0
attr interpolationmode none
attr recordingmode count
attr source ieee80211Unicast(packetSentToPeer)
attr title "packets sent: unicast, count"
scalar TrackingSimulation.client.wlan[0].mac.dcf packetSentToPeerUnicast:sum(packetBytes) 0
attr interpolationmode none
attr recordingmode sum(packetBytes)
attr source ieee80211Unicast(packetSentToPeer)
attr title "packets sent: unicast, sum(packetBytes)"
scalar TrackingSimulation.client.wlan[0].mac.dcf packetSentToPeerMulticast:count 0
attr interpolationmode none
attr recordingmode count
attr source ieee80211Multicast(packetSentToPeer)
attr title "packets sent: multicast, count"
scalar TrackingSimulation.client.wlan[0].mac.dcf packetSentToPeerMulticast:sum(packetBytes) 0
attr interpolationmode none
attr recordingmode sum(packetBytes)
attr source ieee80211Multicast(packetSentToPeer)
attr title "packets sent: multicast, sum(packetBytes)"
scalar TrackingSimulation.client.wlan[0].mac.dcf packetSentToPeerBroadcast:count 0
attr interpolationmode none
attr recordingmode count
attr source ieee80211Broadcast(packetSentToPeer)
attr title "packets sent: broadcast , count"
scalar TrackingSimulation.client.wlan[0].mac.dcf packetSentToPeerBroadcast:sum(packetBytes) 0
attr interpolationmode none
attr recordingmode sum(packetBytes)
attr source ieee80211Broadcast(packetSentToPeer)
attr title "packets sent: broadcast , sum(packetBytes)"
scalar TrackingSimulation.client.wlan[0].mac.dcf packetSentToPeerWithRetry:count 0
attr interpolationmode none
attr recordingmode count
attr source ieee80211Retry(packetSentToPeer)
attr title "packets sent: with retry, count"
scalar TrackingSimulation.client.wlan[0].mac.dcf packetSentToPeerWithRetry:sum(packetBytes) 0
attr interpolationmode none
attr recordingmode sum(packetBytes)
attr source ieee80211Retry(packetSentToPeer)
attr title "packets sent: with retry, sum(packetBytes)"
scalar TrackingSimulation.client.wlan[0].mac.dcf packetSentToPeerWithoutRetry:count 0
attr interpolationmode none
attr recordingmode count
attr source ieee80211NotRetry(packetSentToPeer)
attr title "packets sent: without retry, count"
scalar TrackingSimulation.client.wlan[0].mac.dcf packetSentToPeerWithoutRetry:sum(packetBytes) 0
attr interpolationmode none
attr recordingmode sum(packetBytes)
attr source ieee80211NotRetry(packetSentToPeer)
attr title "packets sent: without retry, sum(packetBytes)"
scalar TrackingSimulation.client.wlan[0].mac.dcf packetDrop:count 0
attr interpolationmode none
attr recordingmode count
attr source packetDropped
attr title "packet drops, count"
scalar TrackingSimulation.client.wlan[0].mac.dcf packetDrop:sum(packetBytes) 0
attr interpolationmode none
attr recordingmode sum(packetBytes)
attr source packetDropped
attr title "packet drops, sum(packetBytes)"
scalar TrackingSimulation.client.wlan[0].mac.dcf packetDropNotAddressedToUs:count 0
attr interpolationmode none
attr recordingmode count
attr source packetDropReasonIsNotAddressedToUs(packetDropped)
attr title "packet drops: not addressed to us, count"
scalar TrackingSimulation.client.wlan[0].mac.dcf packetDropNotAddressedToUs:sum(packetBytes) 0
attr interpolationmode none
attr recordingmode sum(packetBytes)
attr source packetDropReasonIsNotAddressedToUs(packetDropped)
attr title "packet drops: not addressed to us, sum(packetBytes)"
scalar TrackingSimulation.client.wlan[0].mac.dcf packetDropQueueOverflow:count 0
attr interpolationmode none
attr recordingmode count
attr source packetDropReasonIsQueueOverflow(packetDropped)
attr title "packet drops: queue overflow, count"
scalar TrackingSimulation.client.wlan[0].mac.dcf packetDropQueueOverflow:sum(packetBytes) 0
attr interpolationmode none
attr recordingmode sum(packetBytes)
attr source packetDropReasonIsQueueOverflow(packetDropped)
attr title "packet drops: queue overflow, sum(packetBytes)"
scalar TrackingSimulation.client.wlan[0].mac.dcf packetDropRetryLimitReached:count 0
attr interpolationmode none
attr recordingmode count
attr source packetDropReasonIsRetryLimitReached(packetDropped)
attr title "packet drops: retry limit reached, count"
scalar TrackingSimulation.client.wlan[0].mac.dcf packetDropRetryLimitReached:sum(packetBytes) 0
attr interpolationmode none
attr recordingmode sum(packetBytes)
attr source packetDropReasonIsRetryLimitReached(packetDropped)
attr title "packet drops: retry limit reached, sum(packetBytes)"
scalar TrackingSimulation.client.wlan[0].mac.dcf linkBroken:count 0
attr interpolationmode none
attr recordingmode count
attr title "link breaks, count"
scalar TrackingSimulation.client.wlan[0].mac.dcf frameSequenceFinished:count 0
attr recordingmode count
attr title "finished frame sequences, count"
statistic TrackingSimulation.client.wlan[0].mac.dcf frameSequenceDuration:histogram
field count 0
field mean nan
field stddev nan
field min nan
field max nan
field sum 0
field sqrsum 0
attr recordingmode histogram
attr source frameSequenceDuration(frameSequenceFinished)
attr title "frame sequence durations"
bin	-inf	0
bin	0	0
bin	1	0
statistic TrackingSimulation.client.wlan[0].mac.dcf frameSequenceNumPackets:histogram
field count 0
field mean nan
field stddev nan
field min nan
field max nan
field sum 0
field sqrsum 0
attr recordingmode histogram
attr source frameSequenceNumPackets(frameSequenceFinished)
attr title "frame sequences: number of packets"
bin	-inf	0
bin	0	0
bin	1	0
par TrackingSimulation.client.wlan[0].mac.ds typename "\"inet.linklayer.ieee80211.mac.Ds\""
par TrackingSimulation.client.wlan[0].mac.ds displayStringTextFormat "\"\""
attr mutable ""
par TrackingSimulation.client.wlan[0].mac.ds mibModule "\"TrackingSimulation.client.wlan[0].mib\""
par TrackingSimulation.client.wlan[0].mac.rx typename "\"inet.linklayer.ieee80211.mac.Rx\""
par TrackingSimulation.client.wlan[0].mac.rx displayStringTextFormat "\"\""
attr mutable ""
par TrackingSimulation.client.wlan[0].mac.tx typename "\"inet.linklayer.ieee80211.mac.Tx\""
par TrackingSimulation.client.wlan[0].mac.tx displayStringTextFormat "\"\""
attr mutable ""
par TrackingSimulation.client.wlan[0].mac.tx rxModule "\"^.rx\""
par TrackingSimulation.client.wlan[0].mac typename "\"inet.linklayer.ieee80211.mac.Ieee80211Mac\""
par TrackingSimulation.client.wlan[0].mac displayStringTextFormat "\"\""
attr mutable ""
par TrackingSimulation.client.wlan[0].mac interfaceTableModule "\"TrackingSimulation.client.interfaceTable\""
par TrackingSimulation.client.wlan[0].mac mibModule "\"TrackingSimulation.client.wlan[0].mib\""
par TrackingSimulation.client.wlan[0].mac modeSet "\"g(mixed)\""
attr enum a,b,g(erp),g(mixed),n(mixed-2.4Ghz),p,ac
par TrackingSimulation.client.wlan[0].mac fcsMode "\"declared\""
attr enum declared,computed
par TrackingSimulation.client.wlan[0].mac initialRadioMode "\"receiver\""
attr enum off,sleep,receiver,transmitter,transceiver
par TrackingSimulation.client.wlan[0].mac mtu 2304B
attr unit B
par TrackingSimulation.client.wlan[0].mac qosStation false
scalar TrackingSimulation.client.wlan[0].mac packetReceivedFromLower:count 3
attr interpolationmode none
attr recordingmode count
attr title "packets received from lower layer, count"
scalar TrackingSimulation.client.wlan[0].mac packetReceivedFromLower:sum(packetBytes) 120
attr interpolationmode none
attr recordingmode sum(packetBytes)
attr title "packets received from lower layer, sum(packetBytes)"
scalar TrackingSimulation.client.wlan[0].mac packetSentToLower:count 0
attr interpolationmode none
attr recordingmode count
attr title "packets sent to lower layer, count"
scalar TrackingSimulation.client.wlan[0].mac packetSentToLower:sum(packetBytes) 0
attr interpolationmode none
attr recordingmode sum(packetBytes)
attr title "packets sent to lower layer, sum(packetBytes)"
scalar TrackingSimulation.client.wlan[0].mac packetReceivedFromUpper:count 0
attr interpolationmode none
attr recordingmode count
attr title "packets received from upper layer, count"
scalar TrackingSimulation.client.wlan[0].mac packetReceivedFromUpper:sum(packetBytes) 0
attr interpolationmode none
attr recordingmode sum(packetBytes)
attr title "packets received from upper layer, sum(packetBytes)"
scalar TrackingSimulation.client.wlan[0].mac packetSentToUpper:count 0
attr interpolationmode none
attr recordingmode count
attr title "packets sent to upper layer, count"
scalar TrackingSimulation.client.wlan[0].mac packetSentToUpper:sum(packetBytes) 0
attr interpolationmode none
attr recordingmode sum(packetBytes)
attr title "packets sent to upper layer, sum(packetBytes)"
scalar TrackingSimulation.client.wlan[0].mac packetDrop:count 0
attr interpolationmode none
attr recordingmode count
attr source packetDropped
attr title "packet drops, count"
scalar TrackingSimulation.client.wlan[0].mac packetDrop:sum(packetBytes) 0
attr interpolationmode none
attr recordingmode sum(packetBytes)
attr source packetDropped
attr title "packet drops, sum(packetBytes)"
scalar TrackingSimulation.client.wlan[0].mac packetDropIncorrectlyReceived:count 0
attr interpolationmode none
attr recordingmode count
attr source packetDropReasonIsIncorrectlyReceived(packetDropped)
attr title "packet drops: incorrectly received, count"
scalar TrackingSimulation.client.wlan[0].mac packetDropIncorrectlyReceived:sum(packetBytes) 0
attr interpolationmode none
attr recordingmode sum(packetBytes)
attr source packetDropReasonIsIncorrectlyReceived(packetDropped)
attr title "packet drops: incorrectly received, sum(packetBytes)"
scalar TrackingSimulation.client.wlan[0].mac packetDropNotAddressedToUs:count 0
attr interpolationmode none
attr recordingmode count
attr source packetDropReasonIsNotAddressedToUs(packetDropped)
attr title "packet drops: not addressed to us, count"
scalar TrackingSimulation.client.wlan[0].mac packetDropNotAddressedToUs:sum(packetBytes) 0
attr interpolationmode none
attr recordingmode sum(packetBytes)
attr source packetDropReasonIsNotAddressedToUs(packetDropped)
attr title "packet drops: not addressed to us, sum(packetBytes)"
scalar TrackingSimulation.client.wlan[0].mac packetDropQueueOverflow:count 0
attr interpolationmode none
attr recordingmode count
attr source packetDropReasonIsQueueOverflow(packetDropped)
attr title "packet drops: queue overflow, count"
scalar TrackingSimulation.client.wlan[0].mac packetDropQueueOverflow:sum(packetBytes) 0
attr interpolationmode none
attr recordingmode sum(packetBytes)
attr source packetDropReasonIsQueueOverflow(packetDropped)
attr title "packet drops: queue overflow, sum(packetBytes)"
scalar TrackingSimulation.client.wlan[0].mac packetDropRetryLimitReached:count 0
attr interpolationmode none
attr recordingmode count
attr source packetDropReasonIsRetryLimitReached(packetDropped)
attr title "packet drops: retry limit reached, count"
scalar TrackingSimulation.client.wlan[0].mac packetDropRetryLimitReached:sum(packetBytes) 0
attr interpolationmode none
attr recordingmode sum(packetBytes)
attr source packetDropReasonIsRetryLimitReached(packetDropped)
attr title "packet drops: retry limit reached, sum(packetBytes)"
scalar TrackingSimulation.client.wlan[0].mac packetDropDuplicateDetected:count 0
attr interpolationmode none
attr recordingmode count
attr source packetDropReasonIsDuplicateDetected(packetDropped)
attr title "packet drops: duplicate detected, count"
scalar TrackingSimulation.client.wlan[0].mac packetDropDuplicateDetected:sum(packetBytes) 0
attr interpolationmode none
attr recordingmode sum(packetBytes)
attr source packetDropReasonIsDuplicateDetected(packetDropped)
attr title "packet drops: duplicate detected, sum(packetBytes)"
scalar TrackingSimulation.client.wlan[0].mac packetDropOther:count 0
attr interpolationmode none
attr recordingmode count
attr source packetDropReasonIsOther(packetDropped)
attr title "packet drops: other, count"
scalar TrackingSimulation.client.wlan[0].mac packetDropOther:sum(packetBytes) 0
attr interpolationmode none
attr recordingmode sum(packetBytes)
attr source packetDropReasonIsOther(packetDropped)
attr title "packet drops: other, sum(packetBytes)"
scalar TrackingSimulation.client.wlan[0].mac linkBroken:count 0
attr interpolationmode none
attr recordingmode count
attr title "link breaks, count"
par TrackingSimulation.client.wlan[0].radio.antenna typename "\"inet.physicallayer.wireless.common.antenna.IsotropicAntenna\""
par TrackingSimulation.client.wlan[0].radio.antenna displayStringTextFormat "\"\""
attr mutable ""
par TrackingSimulation.client.wlan[0].radio.antenna mobilityModule "\"^.^.^.mobility\""
par TrackingSimulation.client.wlan[0].radio.antenna numAntennas 1
par TrackingSimulation.client.wlan[0].radio.transmitter.analogModel typename "\"inet.physicallayer.wireless.common.analogmodel.scalar.ScalarTransmitterAnalogModel\""
par TrackingSimulation.client.wlan[0].radio.transmitter.analogModel displayStringTextFormat "\"\""
attr mutable ""
par TrackingSimulation.client.wlan[0].radio.transmitter.analogModel power 0.02W
attr unit W
par TrackingSimulation.client.wlan[0].radio.transmitter.analogModel centerFrequency "nan Hz"
attr unit Hz
par TrackingSimulation.client.wlan[0].radio.transmitter.analogModel bandwidth "nan Hz"
attr unit Hz
par TrackingSimulation.client.wlan[0].radio.transmitter typename "\"inet.physicallayer.wireless.ieee80211.packetlevel.Ieee80211Transmitter\""
par TrackingSimulation.client.wlan[0].radio.transmitter displayStringTextFormat "\"\""
attr mutable ""
par TrackingSimulation.client.wlan[0].radio.transmitter signalAnalogRepresentation "\"scalar\""
attr enum unitDisk,scalar,dimensional
par TrackingSimulation.client.wlan[0].radio.transmitter preambleDuration -1s
attr unit s
par TrackingSimulation.client.wlan[0].radio.transmitter headerLength 192b
attr unit b
par TrackingSimulation.client.wlan[0].radio.transmitter bitrate -1bps
attr unit bps
par TrackingSimulation.client.wlan[0].radio.transmitter power 0.02W
attr unit W
par TrackingSimulation.client.wlan[0].radio.transmitter centerFrequency 2.412e+09Hz
attr unit Hz
par TrackingSimulation.client.wlan[0].radio.transmitter bandwidth "nan Hz"
attr unit Hz
par TrackingSimulation.client.wlan[0].radio.transmitter codeRate 1
par TrackingSimulation.client.wlan[0].radio.transmitter modulation "\"BPSK\""
par TrackingSimulation.client.wlan[0].radio.transmitter opMode "\"g(mixed)\""
attr enum a,b,g(erp),g(mixed),n(mixed-2.4Ghz),p,ac
par TrackingSimulation.client.wlan[0].radio.transmitter bandName "\"2.4 GHz\""
attr enum "2.4 GHz,5 GHz,5 GHz (20 MHz),5 GHz (40 MHz),5 GHz (80 MHz),5 GHz (160 MHz),5.9 GHz"
par TrackingSimulation.client.wlan[0].radio.transmitter channelNumber 0
par TrackingSimulation.client.wlan[0].radio.receiver.analogModel typename "\"inet.physicallayer.wireless.common.analogmodel.scalar.ScalarReceiverAnalogModel\""
par TrackingSimulation.client.wlan[0].radio.receiver.analogModel displayStringTextFormat "\"\""
attr mutable ""
par TrackingSimulation.client.wlan[0].radio.receiver.analogModel defaultCenterFrequency 2.412e+09Hz
attr unit Hz
par TrackingSimulation.client.wlan[0].radio.receiver.analogModel defaultBandwidth 2.2e+07Hz
attr unit Hz
par TrackingSimulation.client.wlan[0].radio.receiver.analogModel defaultSensitivity -85dBm
attr unit dBm
par TrackingSimulation.client.wlan[0].radio.receiver.errorModel typename "\"inet.physicallayer.wireless.ieee80211.packetlevel.errormodel.Ieee80211NistErrorModel\""
par TrackingSimulation.client.wlan[0].radio.receiver.errorModel displayStringTextFormat "\"\""
attr mutable ""
par TrackingSimulation.client.wlan[0].radio.receiver.errorModel corruptionMode "\"packet\""
attr enum packet,chunk,byte,bit
par TrackingSimulation.client.wlan[0].radio.receiver.errorModel snirMode "\"min\""
attr enum min,mean
par TrackingSimulation.client.wlan[0].radio.receiver.errorModel snirOffset 0dB
attr unit dB
par TrackingSimulation.client.wlan[0].radio.receiver typename "\"inet.physicallayer.wireless.ieee80211.packetlevel.Ieee80211Receiver\""
par TrackingSimulation.client.wlan[0].radio.receiver displayStringTextFormat "\"\""
attr mutable ""
par TrackingSimulation.client.wlan[0].radio.receiver ignoreInterference false
par TrackingSimulation.client.wlan[0].radio.receiver signalAnalogRepresentation "\"scalar\""
attr enum unitDisk,scalar,dimensional
par TrackingSimulation.client.wlan[0].radio.receiver snirThreshold 4dB
attr unit dB
par TrackingSimulation.client.wlan[0].radio.receiver snirThresholdMode "\"min\""
attr enum min,mean
par TrackingSimulation.client.wlan[0].radio.receiver energyDetection -85dBm
attr unit dBm
par TrackingSimulation.client.wlan[0].radio.receiver sensitivity -85dBm
attr unit dBm
par TrackingSimulation.client.wlan[0].radio.receiver centerFrequency 2.412e+09Hz
attr unit Hz
par TrackingSimulation.client.wlan[0].radio.receiver bandwidth 2.2e+07Hz
attr unit Hz
par TrackingSimulation.client.wlan[0].radio.receiver modulation "\"BPSK\""
par TrackingSimulation.client.wlan[0].radio.receiver opMode "\"g(mixed)\""
attr enum a,b,g(erp),g(mixed),n(mixed-2.4Ghz),p,ac
par TrackingSimulation.client.wlan[0].radio.receiver bandName "\"2.4 GHz\""
attr enum "2.4 GHz,5 GHz,5 GHz (20 MHz),5 GHz (40 MHz),5 GHz (80 MHz),5 GHz (160 MHz),5.9 GHz"
par TrackingSimulation.client.wlan[0].radio.receiver channelNumber 0
par TrackingSimulation.client.wlan[0].radio typename "\"inet.physicallayer.wireless.ieee80211.packetlevel.Ieee80211Radio\""
par TrackingSimulation.client.wlan[0].radio displayStringTextFormat "\"\""
attr mutable ""
par TrackingSimulation.client.wlan[0].radio radioMediumModule "\"radioMedium\""
par TrackingSimulation.client.wlan[0].radio energySourceModule "\"\""
par TrackingSimulation.client.wlan[0].radio initialRadioMode "\"off\""
attr enum off,sleep,receiver,transmitter,transceiver
par TrackingSimulation.client.wlan[0].radio switchingTimes "\"ms 0 0 0 0 0 0 0 0 0 0 0 0 0 0 0 0 0 0 0 0 0 0 0 0 0\""
par TrackingSimulation.client.wlan[0].radio sendRawBytes false
par TrackingSimulation.client.wlan[0].radio separateTransmissionParts false
par TrackingSimulation.client.wlan[0].radio separateReceptionParts false
par TrackingSimulation.client.wlan[0].radio displayCommunicationRange false
par TrackingSimulation.client.wlan[0].radio displayInterferenceRange false
par TrackingSimulation.client.wlan[0].radio signalAnalogRepresentation "\"scalar\""
attr enum unitDisk,scalar,dimensional
par TrackingSimulation.client.wlan[0].radio centerFrequency 2.412e+09Hz
attr unit Hz
par TrackingSimulation.client.wlan[0].radio bandwidth "nan Hz"
attr unit Hz
par TrackingSimulation.client.wlan[0].radio opMode "\"g(mixed)\""
attr enum a,b,g(erp),g(mixed),n(mixed-2.4Ghz),p,ac
par TrackingSimulation.client.wlan[0].radio bandName "\"2.4 GHz\""
attr enum "2.4 GHz,5 GHz,5 GHz (20 MHz),5 GHz (40 MHz),5 GHz (80 MHz),5 GHz (160 MHz),5.9 GHz"
par TrackingSimulation.client.wlan[0].radio channelNumber 0
par TrackingSimulation.client.wlan[0].radio fcsMode "\"declared\""
attr enum declared,computed
statistic TrackingSimulation.client.wlan[0].radio minSnir:histogram
field count 3
field mean 2807.4866728307
field stddev 1067.9704858593
field min 2190.8936253332
field max 4040.6727678255
field sum 8422.460018492
field sqrsum 25927066.171698
attr recordingmode histogram
attr source minimumSnir(packetSentToUpper)
attr title "Min SNIR"
bin	-inf	0
bin	1700	0
bin	1750	0
bin	1800	0
bin	1850	0
bin	1900	0
bin	1950	0
bin	2000	0
bin	2050	0
bin	2100	0
bin	2150	2
bin	2200	0
bin	2250	0
bin	2300	0
bin	2350	0
bin	2400	0
bin	2450	0
bin	2500	0
bin	2550	0
bin	2600	0
bin	2650	0
bin	2700	0
bin	2750	0
bin	2800	0
bin	2850	0
bin	2900	0
bin	2950	0
bin	3000	0
bin	3050	0
bin	3100	0
bin	3150	0
bin	3200	0
bin	3250	0
bin	3300	0
bin	3350	0
bin	3400	0
bin	3450	0
bin	3500	0
bin	3550	0
bin	3600	0
bin	3650	0
bin	3700	0
bin	3750	0
bin	3800	0
bin	3850	0
bin	3900	0
bin	3950	0
bin	4000	1
bin	4050	0
bin	4100	0
bin	4150	0
bin	4200	0
bin	4250	0
bin	4300	0
bin	4350	0
bin	4400	0
bin	4450	0
bin	4500	0
bin	4550	0
statistic TrackingSimulation.client.wlan[0].radio packetErrorRate:histogram
field count 3
field mean 0
field stddev 0
field min 0
field max 0
field sum 0
field sqrsum 0
attr recordingmode histogram
attr source packetErrorRate(packetSentToUpper)
attr title "Packet error rate"
bin	-inf	0
bin	-0.5	0
bin	-0.48	0
bin	-0.46	0
bin	-0.44	0
bin	-0.42	0
bin	-0.4	0
bin	-0.38	0
bin	-0.36	0
bin	-0.34	0
bin	-0.32	0
bin	-0.3	0
bin	-0.28	0
bin	-0.26	0
bin	-0.24	0
bin	-0.22	0
bin	-0.2	0
bin	-0.18	0
bin	-0.16	0
bin	-0.14	0
bin	-0.12	0
bin	-0.1	0
bin	-0.08	0
bin	-0.06	0
bin	-0.04	0
bin	-0.02	0
bin	0	3
bin	0.02	0
bin	0.04	0
bin	0.06	0
bin	0.08	0
bin	0.1	0
bin	0.12	0
bin	0.14	0
bin	0.16	0
bin	0.18	0
bin	0.2	0
bin	0.22	0
bin	0.24	0
bin	0.26	0
bin	0.28	0
bin	0.3	0
bin	0.32	0
bin	0.34	0
bin	0.36	0
bin	0.38	0
bin	0.4	0
bin	0.42	0
bin	0.44	0
bin	0.46	0
bin	0.48	0
bin	0.5	0
statistic TrackingSimulation.client.wlan[0].radio bitErrorRate:histogram
field count 0
field mean nan
field stddev nan
field min nan
field max nan
field sum 0
field sqrsum 0
attr recordingmode histogram
attr source bitErrorRate(packetSentToUpper)
attr title "Bit error rate"
bin	-inf	0
bin	0	0
bin	1	0
statistic TrackingSimulation.client.wlan[0].radio symbolErrorRate:histogram
field count 0
field mean nan
field stddev nan
field min nan
field max nan
field sum 0
field sqrsum 0
attr recordingmode histogram
attr source symbolErrorRate(packetSentToUpper)
attr title "Symbol error rate"
bin	-inf	0
bin	0	0
bin	1	0
scalar TrackingSimulation.client.wlan[0].radio transmissionState:count 0
attr enum UNDEFINED,IDLE,TRANSMITTING
attr interpolationmode sample-hold
attr recordingmode count
attr source transmissionStateChanged
attr title "Radio transmission state, count"
attr type enum
scalar TrackingSimulation.client.wlan[0].radio receptionState:count 8
attr enum UNDEFINED,IDLE,BUSY,RECEIVING
attr interpolationmode sample-hold
attr recordingmode count
attr source receptionStateChanged
attr title "Radio reception state, count"
attr type enum
scalar TrackingSimulation.client.wlan[0].radio radioMode:count 3
attr enum OFF,SLEEP,RECEIVER,TRANSMITTER,TRANSCEIVER,SWITCHING
attr interpolationmode sample-hold
attr recordingmode count
attr source radioModeChanged
attr title "Radio mode, count"
attr type enum
statistic TrackingSimulation.client.wlan[0].radio radioChannel:histogram
field count 1
field mean 0
field stddev nan
field min 0
field max 0
field sum 0
field sqrsum 0
attr interpolationmode sample-hold
attr recordingmode histogram
attr source radioChannelChanged
attr title "Radio channel"
bin	-inf	0
bin	-0.5	0
bin	-0.48	0
bin	-0.46	0
bin	-0.44	0
bin	-0.42	0
bin	-0.4	0
bin	-0.38	0
bin	-0.36	0
bin	-0.34	0
bin	-0.32	0
bin	-0.3	0
bin	-0.28	0
bin	-0.26	0
bin	-0.24	0
bin	-0.22	0
bin	-0.2	0
bin	-0.18	0
bin	-0.16	0
bin	-0.14	0
bin	-0.12	0
bin	-0.1	0
bin	-0.08	0
bin	-0.06	0
bin	-0.04	0
bin	-0.02	0
bin	0	1
bin	0.02	0
bin	0.04	0
bin	0.06	0
bin	0.08	0
bin	0.1	0
bin	0.12	0
bin	0.14	0
bin	0.16	0
bin	0.18	0
bin	0.2	0
bin	0.22	0
bin	0.24	0
bin	0.26	0
bin	0.28	0
bin	0.3	0
bin	0.32	0
bin	0.34	0
bin	0.36	0
bin	0.38	0
bin	0.4	0
bin	0.42	0
bin	0.44	0
bin	0.46	0
bin	0.48	0
bin	0.5	0
par TrackingSimulation.client.wlan[0] typename "\"inet.linklayer.ieee80211.Ieee80211Interface\""
par TrackingSimulation.client.wlan[0] displayStringTextFormat "\"%a (%i)\\n%m\""
attr mutable ""
par TrackingSimulation.client.wlan[0] recordPcap false
par TrackingSimulation.client.wlan[0] numPcapRecorders 0
par TrackingSimulation.client.wlan[0] interfaceTableModule "\"TrackingSimulation.client.interfaceTable\""
par TrackingSimulation.client.wlan[0] energySourceModule "\"\""
par TrackingSimulation.client.wlan[0] opMode "\"g(mixed)\""
attr enum a,b,g(erp),g(mixed),n(mixed-2.4Ghz),p,ac
par TrackingSimulation.client.wlan[0] address "\"0A-AA-00-00-00-01\""
attr mutable ""
par TrackingSimulation.client.wlan[0] protocol "\"\""
par TrackingSimulation.client.wlan[0] bitrate -1bps
attr unit bps
scalar TrackingSimulation.client.wlan[0] packetDropInterfaceDown:count 0
attr interpolationmode none
attr recordingmode count
attr source packetDropReasonIsInterfaceDown(packetDropped)
attr title "packet drops: interface down, count"
scalar TrackingSimulation.client.wlan[0] packetDropInterfaceDown:sum(packetBytes) 0
attr interpolationmode none
attr recordingmode sum(packetBytes)
attr source packetDropReasonIsInterfaceDown(packetDropped)
attr title "packet drops: interface down, sum(packetBytes)"
scalar TrackingSimulation.client.wlan[0] packetDropNoCarrier:count 0
attr interpolationmode none
attr recordingmode count
attr source packetDropReasonIsNoCarrier(packetDropped)
attr title "packet drops: no carrier, count"
scalar TrackingSimulation.client.wlan[0] packetDropNoCarrier:sum(packetBytes) 0
attr interpolationmode none
attr recordingmode sum(packetBytes)
attr source packetDropReasonIsNoCarrier(packetDropped)
attr title "packet drops: no carrier, sum(packetBytes)"
par TrackingSimulation.client.ipv4.transportIn.channel typename "\"ned.IdealChannel\""
par TrackingSimulation.client.ipv4.up.out[0].channel typename "\"ned.IdealChannel\""
par TrackingSimulation.client.ipv4.lp.out[2].channel typename "\"ned.IdealChannel\""
par TrackingSimulation.client.ipv4.ifIn.channel typename "\"ned.IdealChannel\""
par TrackingSimulation.client.ipv4.configurator typename "\"inet.networklayer.configurator.ipv4.Ipv4NodeConfigurator\""
par TrackingSimulation.client.ipv4.configurator displayStringTextFormat "\"\""
attr mutable ""
par TrackingSimulation.client.ipv4.configurator interfaceTableModule "\"TrackingSimulation.client.interfaceTable\""
par TrackingSimulation.client.ipv4.configurator routingTableModule "\"TrackingSimulation.client.ipv4.routingTable\""
par TrackingSimulation.client.ipv4.configurator networkConfiguratorModule "\"configurator\""
par TrackingSimulation.client.ipv4.configurator configureRoutingTable true
par TrackingSimulation.client.ipv4.routingTable typename "\"inet.networklayer.ipv4.Ipv4RoutingTable\""
par TrackingSimulation.client.ipv4.routingTable displayStringTextFormat "\"\""
attr mutable ""
par TrackingSimulation.client.ipv4.routingTable interfaceTableModule "\"TrackingSimulation.client.interfaceTable\""
par TrackingSimulation.client.ipv4.routingTable routerId "\"auto\""
par TrackingSimulation.client.ipv4.routingTable netmaskRoutes "\"*\""
par TrackingSimulation.client.ipv4.routingTable forwarding false
par TrackingSimulation.client.ipv4.routingTable multicastForwarding false
par TrackingSimulation.client.ipv4.routingTable useAdminDist false
par TrackingSimulation.client.ipv4.routingTable routingFile "\"\""
par TrackingSimulation.client.ipv4.natTable typename "\"inet.networklayer.ipv4.Ipv4NatTable\""
par TrackingSimulation.client.ipv4.natTable displayStringTextFormat "\"\""
attr mutable ""
par TrackingSimulation.client.ipv4.natTable networkProtocolModule "\"^.ip\""
par TrackingSimulation.client.ipv4.natTable config "<config/> at content:1"
par TrackingSimulation.client.ipv4.up typename "\"inet.common.MessageDispatcher\""
par TrackingSimulation.client.ipv4.up displayStringTextFormat "\"processed %p pk (%l)\""
attr mutable ""
par TrackingSimulation.client.ipv4.up interfaceTableModule "\"TrackingSimulation.client.interfaceTable\""
par TrackingSimulation.client.ipv4.up forwardServiceRegistration true
par TrackingSimulation.client.ipv4.up forwardProtocolRegistration true
par TrackingSimulation.client.ipv4.up interfaceMapping {}
par TrackingSimulation.client.ipv4.up serviceMapping {}
par TrackingSimulation.client.ipv4.up protocolMapping {}
par TrackingSimulation.client.ipv4.igmp typename "\"inet.networklayer.ipv4.Igmpv2\""
par TrackingSimulation.client.ipv4.igmp displayStringTextFormat "\"\""
attr mutable ""
par TrackingSimulation.client.ipv4.igmp interfaceTableModule "\"TrackingSimulation.client.interfaceTable\""
par TrackingSimulation.client.ipv4.igmp routingTableModule "\"TrackingSimulation.client.ipv4.routingTable\""
par TrackingSimulation.client.ipv4.igmp checksumMode "\"declared\""
attr enum declared,computed
par TrackingSimulation.client.ipv4.igmp enabled true
par TrackingSimulation.client.ipv4.igmp robustnessVariable 2
par TrackingSimulation.client.ipv4.igmp queryInterval 125s
attr unit s
par TrackingSimulation.client.ipv4.igmp queryResponseInterval 10s
attr unit s
par TrackingSimulation.client.ipv4.igmp groupMembershipInterval 260s
attr unit s
par TrackingSimulation.client.ipv4.igmp otherQuerierPresentInterval 255s
attr unit s
par TrackingSimulation.client.ipv4.igmp startupQueryInterval 31.25s
attr unit s
par TrackingSimulation.client.ipv4.igmp startupQueryCount 2
par TrackingSimulation.client.ipv4.igmp lastMemberQueryInterval 1s
attr unit s
par TrackingSimulation.client.ipv4.igmp lastMemberQueryCount 2
par TrackingSimulation.client.ipv4.igmp unsolicitedReportInterval 10s
attr unit s
par TrackingSimulation.client.ipv4.icmp typename "\"inet.networklayer.ipv4.Icmp\""
par TrackingSimulation.client.ipv4.icmp displayStringTextFormat "\"\""
attr mutable ""
par TrackingSimulation.client.ipv4.icmp interfaceTableModule "\"TrackingSimulation.client.interfaceTable\""
par TrackingSimulation.client.ipv4.icmp routingTableModule "\"TrackingSimulation.client.ipv4.routingTable\""
par TrackingSimulation.client.ipv4.icmp checksumMode "\"declared\""
attr enum declared,computed
attr mutable ""
par TrackingSimulation.client.ipv4.icmp quoteLength 8B
attr mutable ""
attr unit B
par TrackingSimulation.client.ipv4.mp typename "\"inet.common.MessageDispatcher\""
par TrackingSimulation.client.ipv4.mp displayStringTextFormat "\"processed %p pk (%l)\""
attr mutable ""
par TrackingSimulation.client.ipv4.mp interfaceTableModule "\"TrackingSimulation.client.interfaceTable\""
par TrackingSimulation.client.ipv4.mp forwardServiceRegistration true
par TrackingSimulation.client.ipv4.mp forwardProtocolRegistration true
par TrackingSimulation.client.ipv4.mp interfaceMapping {}
par TrackingSimulation.client.ipv4.mp serviceMapping {}
par TrackingSimulation.client.ipv4.mp protocolMapping {}
par TrackingSimulation.client.ipv4.ip typename "\"inet.networklayer.ipv4.Ipv4\""
par TrackingSimulation.client.ipv4.ip displayStringTextFormat "\"\""
attr mutable ""
par TrackingSimulation.client.ipv4.ip interfaceTableModule "\"TrackingSimulation.client.interfaceTable\""
par TrackingSimulation.client.ipv4.ip routingTableModule "\"TrackingSimulation.client.ipv4.routingTable\""
par TrackingSimulation.client.ipv4.ip arpModule "\"TrackingSimulation.client.ipv4.arp\""
par TrackingSimulation.client.ipv4.ip icmpModule "\"TrackingSimulation.client.ipv4.icmp\""
par TrackingSimulation.client.ipv4.ip checksumMode "\"declared\""
attr enum declared,computed
par TrackingSimulation.client.ipv4.ip timeToLive 32
par TrackingSimulation.client.ipv4.ip multicastTimeToLive 32
par TrackingSimulation.client.ipv4.ip fragmentTimeout 60s
attr unit s
par TrackingSimulation.client.ipv4.ip limitedBroadcast false
par TrackingSimulation.client.ipv4.ip directBroadcastInterfaces "\"\""
par TrackingSimulation.client.ipv4.ip enableLocalOutMulticastRouting false
par TrackingSimulation.client.ipv4.ip enableTimestampOption false
par TrackingSimulation.client.ipv4.ip maxLifetime -1s
attr unit s
scalar TrackingSimulation.client.ipv4.ip packetDropAddressResolutionFailed:count 0
attr interpolationmode none
attr recordingmode count
attr source packetDropReasonIsAddressResolutionFailed(packetDropped)
attr title "packet drop: address resolution failed, count"
scalar TrackingSimulation.client.ipv4.ip packetDropAddressResolutionFailed:sum(packetBytes) 0
attr interpolationmode none
attr recordingmode sum(packetBytes)
attr source packetDropReasonIsAddressResolutionFailed(packetDropped)
attr title "packet drop: address resolution failed, sum(packetBytes)"
scalar TrackingSimulation.client.ipv4.ip packetDropHopLimitReached:count 0
attr interpolationmode none
attr recordingmode count
attr source packetDropReasonIsHopLimitReached(packetDropped)
attr title "packet drop: hop limit reached, count"
scalar TrackingSimulation.client.ipv4.ip packetDropHopLimitReached:sum(packetBytes) 0
attr interpolationmode none
attr recordingmode sum(packetBytes)
attr source packetDropReasonIsHopLimitReached(packetDropped)
attr title "packet drop: hop limit reached, sum(packetBytes)"
scalar TrackingSimulation.client.ipv4.ip packetDropForwardingDisabled:count 0
attr interpolationmode none
attr recordingmode count
attr source packetDropReasonIsForwardingDisabled(packetDropped)
attr title "packet drop: forwarding disabled, count"
scalar TrackingSimulation.client.ipv4.ip packetDropForwardingDisabled:sum(packetBytes) 0
attr interpolationmode none
attr recordingmode sum(packetBytes)
attr source packetDropReasonIsForwardingDisabled(packetDropped)
attr title "packet drop: forwarding disabled, sum(packetBytes)"
scalar TrackingSimulation.client.ipv4.ip packetDropLifetimeExpired:count 0
attr interpolationmode none
attr recordingmode count
attr source packetDropReasonIsLifetimeExpired(packetDropped)
attr title "packet drop: lifetime expired, count"
scalar TrackingSimulation.client.ipv4.ip packetDropLifetimeExpired:sum(packetBytes) 0
attr interpolationmode none
attr recordingmode sum(packetBytes)
attr source packetDropReasonIsLifetimeExpired(packetDropped)
attr title "packet drop: lifetime expired, sum(packetBytes)"
scalar TrackingSimulation.client.ipv4.ip packetDropNoInterfaceFound:count 0
attr interpolationmode none
attr recordingmode count
attr source packetDropReasonIsNoInterfaceFound(packetDropped)
attr title "packet drop: no interface found, count"
scalar TrackingSimulation.client.ipv4.ip packetDropNoInterfaceFound:sum(packetBytes) 0
attr interpolationmode none
attr recordingmode sum(packetBytes)
attr source packetDropReasonIsNoInterfaceFound(packetDropped)
attr title "packet drop: no interface found, sum(packetBytes)"
scalar TrackingSimulation.client.ipv4.ip packetDropNoRouteFound:count 0
attr interpolationmode none
attr recordingmode count
attr source packetDropReasonIsNoRouteFound(packetDropped)
attr title "packet drop: no route found, count"
scalar TrackingSimulation.client.ipv4.ip packetDropNoRouteFound:sum(packetBytes) 0
attr interpolationmode none
attr recordingmode sum(packetBytes)
attr source packetDropReasonIsNoRouteFound(packetDropped)
attr title "packet drop: no route found, sum(packetBytes)"
scalar TrackingSimulation.client.ipv4.ip packetDropUndefined:count 0
attr interpolationmode none
attr recordingmode count
attr source packetDropReasonIsUndefined(packetDropped)
attr title "packet drop: undefined, count"
scalar TrackingSimulation.client.ipv4.ip packetDropUndefined:sum(packetBytes) 0
attr interpolationmode none
attr recordingmode sum(packetBytes)
attr source packetDropReasonIsUndefined(packetDropped)
attr title "packet drop: undefined, sum(packetBytes)"
par TrackingSimulation.client.ipv4.arp typename "\"inet.networklayer.arp.ipv4.Arp\""
par TrackingSimulation.client.ipv4.arp displayStringTextFormat "\"\""
attr mutable ""
par TrackingSimulation.client.ipv4.arp interfaceTableModule "\"TrackingSimulation.client.interfaceTable\""
par TrackingSimulation.client.ipv4.arp routingTableModule "\"TrackingSimulation.client.ipv4.routingTable\""
par TrackingSimulation.client.ipv4.arp retryTimeout 1s
attr unit s
par TrackingSimulation.client.ipv4.arp retryCount 3
par TrackingSimulation.client.ipv4.arp cacheTimeout 120s
attr unit s
par TrackingSimulation.client.ipv4.arp proxyArpInterfaces "\"\""
scalar TrackingSimulation.client.ipv4.arp arpReplySent:count 0
attr recordingmode count
attr source arpReplySent
attr title "ARP replies sent, count"
scalar TrackingSimulation.client.ipv4.arp arpReplySent:sum(packetBytes) 0
attr recordingmode sum(packetBytes)
attr source arpReplySent
attr title "ARP replies sent, sum(packetBytes)"
scalar TrackingSimulation.client.ipv4.arp arpRequestSent:count 0
attr recordingmode count
attr source arpRequestSent
attr title "ARP request sent, count"
scalar TrackingSimulation.client.ipv4.arp arpRequestSent:sum(packetBytes) 0
attr recordingmode sum(packetBytes)
attr source arpRequestSent
attr title "ARP request sent, sum(packetBytes)"
scalar TrackingSimulation.client.ipv4.arp arpResolutionFailed:count 0
attr recordingmode count
attr title "ARP failed resolutions, count"
scalar TrackingSimulation.client.ipv4.arp arpResolutionCompleted:count 0
attr recordingmode count
attr title "ARP completed resolutions, count"
scalar TrackingSimulation.client.ipv4.arp arpResolutionInitiated:count 0
attr recordingmode count
attr title "ARP initiated resolutions, count"
par TrackingSimulation.client.ipv4.lp typename "\"inet.common.MessageDispatcher\""
par TrackingSimulation.client.ipv4.lp displayStringTextFormat "\"processed %p pk (%l)\""
attr mutable ""
par TrackingSimulation.client.ipv4.lp interfaceTableModule "\"TrackingSimulation.client.interfaceTable\""
par TrackingSimulation.client.ipv4.lp forwardServiceRegistration true
par TrackingSimulation.client.ipv4.lp forwardProtocolRegistration true
par TrackingSimulation.client.ipv4.lp interfaceMapping {}
par TrackingSimulation.client.ipv4.lp serviceMapping {}
par TrackingSimulation.client.ipv4.lp protocolMapping {}
par TrackingSimulation.client.ipv4 typename "\"inet.networklayer.ipv4.Ipv4NetworkLayer\""
par TrackingSimulation.client.ipv4 displayStringTextFormat "\"%i\""
attr mutable ""
par TrackingSimulation.client.ipv4 forwarding false
par TrackingSimulation.client.ipv4 multicastForwarding false
par TrackingSimulation.client.ipv4 hasIpsec false
par TrackingSimulation.client.ipv4 interfaceTableModule "\"TrackingSimulation.client.interfaceTable\""
par TrackingSimulation.client.nl typename "\"inet.common.MessageDispatcher\""
par TrackingSimulation.client.nl displayStringTextFormat "\"processed %p pk (%l)\""
attr mutable ""
par TrackingSimulation.client.nl interfaceTableModule "\"TrackingSimulation.client.interfaceTable\""
par TrackingSimulation.client.nl forwardServiceRegistration true
par TrackingSimulation.client.nl forwardProtocolRegistration true
par TrackingSimulation.client.nl interfaceMapping {}
par TrackingSimulation.client.nl serviceMapping {}
par TrackingSimulation.client.nl protocolMapping {}
par TrackingSimulation.client.udp typename "\"inet.transportlayer.udp.Udp\""
par TrackingSimulation.client.udp displayStringTextFormat "\"\""
attr mutable ""
par TrackingSimulation.client.udp interfaceTableModule "\"TrackingSimulation.client.interfaceTable\""
par TrackingSimulation.client.udp icmpModule "\"^.ipv4.icmp\""
par TrackingSimulation.client.udp icmpv6Module "\"^.ipv6.icmpv6\""
par TrackingSimulation.client.udp checksumMode "\"declared\""
attr enum disabled,declared,computed
par TrackingSimulation.client.udp defaultMulticastLoop true
scalar TrackingSimulation.client.udp packetReceived:count 0
attr interpolationmode none
attr recordingmode count
attr source packetReceived
attr title "packets received, count"
scalar TrackingSimulation.client.udp packetReceived:sum(packetBytes) 0
attr interpolationmode none
attr recordingmode sum(packetBytes)
attr source packetReceived
attr title "packets received, sum(packetBytes)"
scalar TrackingSimulation.client.udp packetSent:count 0
attr interpolationmode none
attr recordingmode count
attr source packetSent
attr title "packets sent, count"
scalar TrackingSimulation.client.udp packetSent:sum(packetBytes) 0
attr interpolationmode none
attr recordingmode sum(packetBytes)
attr source packetSent
attr title "packets sent, sum(packetBytes)"
scalar TrackingSimulation.client.udp passedUpPk:count 0
attr interpolationmode none
attr recordingmode count
attr source packetSentToUpper
attr title "packets passed up, count"
scalar TrackingSimulation.client.udp droppedPkWrongPort:count 0
attr interpolationmode none
attr recordingmode count
attr source packetDropReasonIsNoPortFound(packetDropped)
attr title "packets dropped (wrong port), count"
scalar TrackingSimulation.client.udp droppedPkBadChecksum:count 0
attr interpolationmode none
attr recordingmode count
attr source packetDropReasonIsIncorrectlyReceived(packetDropped)
attr title "packets dropped (checksum error), count"
par TrackingSimulation.client.tcp typename "\"inet.transportlayer.tcp.Tcp\""
par TrackingSimulation.client.tcp displayStringTextFormat "\"\""
attr mutable ""
par TrackingSimulation.client.tcp checksumMode "\"declared\""
attr enum declared,computed
par TrackingSimulation.client.tcp advertisedWindow 7504
par TrackingSimulation.client.tcp delayedAcksEnabled false
[...]
par TrackingSimulation.monitoringCenter.ipv4.igmp checksumMode "\"declared\""
attr enum declared,computed
par TrackingSimulation.monitoringCenter.ipv4.igmp enabled true
par TrackingSimulation.monitoringCenter.ipv4.igmp robustnessVariable 2
par TrackingSimulation.monitoringCenter.ipv4.igmp queryInterval 125s
attr unit s
par TrackingSimulation.monitoringCenter.ipv4.igmp queryResponseInterval 10s
attr unit s
par TrackingSimulation.monitoringCenter.ipv4.igmp groupMembershipInterval 260s
attr unit s
par TrackingSimulation.monitoringCenter.ipv4.igmp otherQuerierPresentInterval 255s
attr unit s
par TrackingSimulation.monitoringCenter.ipv4.igmp startupQueryInterval 31.25s
attr unit s
par TrackingSimulation.monitoringCenter.ipv4.igmp startupQueryCount 2
par TrackingSimulation.monitoringCenter.ipv4.igmp lastMemberQueryInterval 1s
attr unit s
par TrackingSimulation.monitoringCenter.ipv4.igmp lastMemberQueryCount 2
par TrackingSimulation.monitoringCenter.ipv4.igmp unsolicitedReportInterval 10s
attr unit s
par TrackingSimulation.monitoringCenter.ipv4.icmp typename "\"inet.networklayer.ipv4.Icmp\""
par TrackingSimulation.monitoringCenter.ipv4.icmp displayStringTextFormat "\"\""
attr mutable ""
par TrackingSimulation.monitoringCenter.ipv4.icmp interfaceTableModule "\"TrackingSimulation.monitoringCenter.interfaceTable\""
par TrackingSimulation.monitoringCenter.ipv4.icmp routingTableModule "\"TrackingSimulation.monitoringCenter.ipv4.routingTable\""
par TrackingSimulation.monitoringCenter.ipv4.icmp checksumMode "\"declared\""
attr enum declared,computed
attr mutable ""
par TrackingSimulation.monitoringCenter.ipv4.icmp quoteLength 8B
attr mutable ""
attr unit B
par TrackingSimulation.monitoringCenter.ipv4.mp typename "\"inet.common.MessageDispatcher\""
par TrackingSimulation.monitoringCenter.ipv4.mp displayStringTextFormat "\"processed %p pk (%l)\""
attr mutable ""
par TrackingSimulation.monitoringCenter.ipv4.mp interfaceTableModule "\"TrackingSimulation.monitoringCenter.interfaceTable\""
par TrackingSimulation.monitoringCenter.ipv4.mp forwardServiceRegistration true
par TrackingSimulation.monitoringCenter.ipv4.mp forwardProtocolRegistration true
par TrackingSimulation.monitoringCenter.ipv4.mp interfaceMapping {}
par TrackingSimulation.monitoringCenter.ipv4.mp serviceMapping {}
par TrackingSimulation.monitoringCenter.ipv4.mp protocolMapping {}
par TrackingSimulation.monitoringCenter.ipv4.ip typename "\"inet.networklayer.ipv4.Ipv4\""
par TrackingSimulation.monitoringCenter.ipv4.ip displayStringTextFormat "\"\""
attr mutable ""
par TrackingSimulation.monitoringCenter.ipv4.ip interfaceTableModule "\"TrackingSimulation.monitoringCenter.interfaceTable\""
par TrackingSimulation.monitoringCenter.ipv4.ip routingTableModule "\"TrackingSimulation.monitoringCenter.ipv4.routingTable\""
par TrackingSimulation.monitoringCenter.ipv4.ip arpModule "\"TrackingSimulation.monitoringCenter.ipv4.arp\""
par TrackingSimulation.monitoringCenter.ipv4.ip icmpModule "\"TrackingSimulation.monitoringCenter.ipv4.icmp\""
par TrackingSimulation.monitoringCenter.ipv4.ip checksumMode "\"declared\""
attr enum declared,computed
par TrackingSimulation.monitoringCenter.ipv4.ip timeToLive 32
par TrackingSimulation.monitoringCenter.ipv4.ip multicastTimeToLive 32
par TrackingSimulation.monitoringCenter.ipv4.ip fragmentTimeout 60s
attr unit s
par TrackingSimulation.monitoringCenter.ipv4.ip limitedBroadcast false
par TrackingSimulation.monitoringCenter.ipv4.ip directBroadcastInterfaces "\"\""
par TrackingSimulation.monitoringCenter.ipv4.ip enableLocalOutMulticastRouting false
par TrackingSimulation.monitoringCenter.ipv4.ip enableTimestampOption false
par TrackingSimulation.monitoringCenter.ipv4.ip maxLifetime -1s
attr unit s
scalar TrackingSimulation.monitoringCenter.ipv4.ip packetDropAddressResolutionFailed:count 0
attr interpolationmode none
attr recordingmode count
attr source packetDropReasonIsAddressResolutionFailed(packetDropped)
attr title "packet drop: address resolution failed, count"
scalar TrackingSimulation.monitoringCenter.ipv4.ip packetDropAddressResolutionFailed:sum(packetBytes) 0
attr interpolationmode none
attr recordingmode sum(packetBytes)
attr source packetDropReasonIsAddressResolutionFailed(packetDropped)
attr title "packet drop: address resolution failed, sum(packetBytes)"
scalar TrackingSimulation.monitoringCenter.ipv4.ip packetDropHopLimitReached:count 0
attr interpolationmode none
attr recordingmode count
attr source packetDropReasonIsHopLimitReached(packetDropped)
attr title "packet drop: hop limit reached, count"
scalar TrackingSimulation.monitoringCenter.ipv4.ip packetDropHopLimitReached:sum(packetBytes) 0
attr interpolationmode none
attr recordingmode sum(packetBytes)
attr source packetDropReasonIsHopLimitReached(packetDropped)
attr title "packet drop: hop limit reached, sum(packetBytes)"
scalar TrackingSimulation.monitoringCenter.ipv4.ip packetDropForwardingDisabled:count 0
attr interpolationmode none
attr recordingmode count
attr source packetDropReasonIsForwardingDisabled(packetDropped)
attr title "packet drop: forwarding disabled, count"
scalar TrackingSimulation.monitoringCenter.ipv4.ip packetDropForwardingDisabled:sum(packetBytes) 0
attr interpolationmode none
attr recordingmode sum(packetBytes)
attr source packetDropReasonIsForwardingDisabled(packetDropped)
attr title "packet drop: forwarding disabled, sum(packetBytes)"
scalar TrackingSimulation.monitoringCenter.ipv4.ip packetDropLifetimeExpired:count 0
attr interpolationmode none
attr recordingmode count
attr source packetDropReasonIsLifetimeExpired(packetDropped)
attr title "packet drop: lifetime expired, count"
scalar TrackingSimulation.monitoringCenter.ipv4.ip packetDropLifetimeExpired:sum(packetBytes) 0
attr interpolationmode none
attr recordingmode sum(packetBytes)
attr source packetDropReasonIsLifetimeExpired(packetDropped)
attr title "packet drop: lifetime expired, sum(packetBytes)"
scalar TrackingSimulation.monitoringCenter.ipv4.ip packetDropNoInterfaceFound:count 0
attr interpolationmode none
attr recordingmode count
attr source packetDropReasonIsNoInterfaceFound(packetDropped)
attr title "packet drop: no interface found, count"
scalar TrackingSimulation.monitoringCenter.ipv4.ip packetDropNoInterfaceFound:sum(packetBytes) 0
attr interpolationmode none
attr recordingmode sum(packetBytes)
attr source packetDropReasonIsNoInterfaceFound(packetDropped)
attr title "packet drop: no interface found, sum(packetBytes)"
scalar TrackingSimulation.monitoringCenter.ipv4.ip packetDropNoRouteFound:count 0
attr interpolationmode none
attr recordingmode count
attr source packetDropReasonIsNoRouteFound(packetDropped)
attr title "packet drop: no route found, count"
scalar TrackingSimulation.monitoringCenter.ipv4.ip packetDropNoRouteFound:sum(packetBytes) 0
attr interpolationmode none
attr recordingmode sum(packetBytes)
attr source packetDropReasonIsNoRouteFound(packetDropped)
attr title "packet drop: no route found, sum(packetBytes)"
scalar TrackingSimulation.monitoringCenter.ipv4.ip packetDropUndefined:count 0
attr interpolationmode none
attr recordingmode count
attr source packetDropReasonIsUndefined(packetDropped)
attr title "packet drop: undefined, count"
scalar TrackingSimulation.monitoringCenter.ipv4.ip packetDropUndefined:sum(packetBytes) 0
attr interpolationmode none
attr recordingmode sum(packetBytes)
attr source packetDropReasonIsUndefined(packetDropped)
attr title "packet drop: undefined, sum(packetBytes)"
par TrackingSimulation.monitoringCenter.ipv4.arp typename "\"inet.networklayer.arp.ipv4.Arp\""
par TrackingSimulation.monitoringCenter.ipv4.arp displayStringTextFormat "\"\""
attr mutable ""
par TrackingSimulation.monitoringCenter.ipv4.arp interfaceTableModule "\"TrackingSimulation.monitoringCenter.interfaceTable\""
par TrackingSimulation.monitoringCenter.ipv4.arp routingTableModule "\"TrackingSimulation.monitoringCenter.ipv4.routingTable\""
par TrackingSimulation.monitoringCenter.ipv4.arp retryTimeout 1s
attr unit s
par TrackingSimulation.monitoringCenter.ipv4.arp retryCount 3
par TrackingSimulation.monitoringCenter.ipv4.arp cacheTimeout 120s
attr unit s
par TrackingSimulation.monitoringCenter.ipv4.arp proxyArpInterfaces "\"\""
scalar TrackingSimulation.monitoringCenter.ipv4.arp arpReplySent:count 0
attr recordingmode count
attr source arpReplySent
attr title "ARP replies sent, count"
scalar TrackingSimulation.monitoringCenter.ipv4.arp arpReplySent:sum(packetBytes) 0
attr recordingmode sum(packetBytes)
attr source arpReplySent
attr title "ARP replies sent, sum(packetBytes)"
scalar TrackingSimulation.monitoringCenter.ipv4.arp arpRequestSent:count 0
attr recordingmode count
attr source arpRequestSent
attr title "ARP request sent, count"
scalar TrackingSimulation.monitoringCenter.ipv4.arp arpRequestSent:sum(packetBytes) 0
attr recordingmode sum(packetBytes)
attr source arpRequestSent
attr title "ARP request sent, sum(packetBytes)"
scalar TrackingSimulation.monitoringCenter.ipv4.arp arpResolutionFailed:count 0
attr recordingmode count
attr title "ARP failed resolutions, count"
scalar TrackingSimulation.monitoringCenter.ipv4.arp arpResolutionCompleted:count 0
attr recordingmode count
attr title "ARP completed resolutions, count"
scalar TrackingSimulation.monitoringCenter.ipv4.arp arpResolutionInitiated:count 0
attr recordingmode count
attr title "ARP initiated resolutions, count"
par TrackingSimulation.monitoringCenter.ipv4.lp typename "\"inet.common.MessageDispatcher\""
par TrackingSimulation.monitoringCenter.ipv4.lp displayStringTextFormat "\"processed %p pk (%l)\""
attr mutable ""
par TrackingSimulation.monitoringCenter.ipv4.lp interfaceTableModule "\"TrackingSimulation.monitoringCenter.interfaceTable\""
par TrackingSimulation.monitoringCenter.ipv4.lp forwardServiceRegistration true
par TrackingSimulation.monitoringCenter.ipv4.lp forwardProtocolRegistration true
par TrackingSimulation.monitoringCenter.ipv4.lp interfaceMapping {}
par TrackingSimulation.monitoringCenter.ipv4.lp serviceMapping {}
par TrackingSimulation.monitoringCenter.ipv4.lp protocolMapping {}
par TrackingSimulation.monitoringCenter.ipv4 typename "\"inet.networklayer.ipv4.Ipv4NetworkLayer\""
par TrackingSimulation.monitoringCenter.ipv4 displayStringTextFormat "\"%i\""
attr mutable ""
par TrackingSimulation.monitoringCenter.ipv4 forwarding false
par TrackingSimulation.monitoringCenter.ipv4 multicastForwarding false
par TrackingSimulation.monitoringCenter.ipv4 hasIpsec false
par TrackingSimulation.monitoringCenter.ipv4 interfaceTableModule "\"TrackingSimulation.monitoringCenter.interfaceTable\""
par TrackingSimulation.monitoringCenter.nl typename "\"inet.common.MessageDispatcher\""
par TrackingSimulation.monitoringCenter.nl displayStringTextFormat "\"processed %p pk (%l)\""
attr mutable ""
par TrackingSimulation.monitoringCenter.nl interfaceTableModule "\"TrackingSimulation.monitoringCenter.interfaceTable\""
par TrackingSimulation.monitoringCenter.nl forwardServiceRegistration true
par TrackingSimulation.monitoringCenter.nl forwardProtocolRegistration true
par TrackingSimulation.monitoringCenter.nl interfaceMapping {}
par TrackingSimulation.monitoringCenter.nl serviceMapping {}
par TrackingSimulation.monitoringCenter.nl protocolMapping {}
par TrackingSimulation.monitoringCenter.udp typename "\"inet.transportlayer.udp.Udp\""
par TrackingSimulation.monitoringCenter.udp displayStringTextFormat "\"\""
attr mutable ""
par TrackingSimulation.monitoringCenter.udp interfaceTableModule "\"TrackingSimulation.monitoringCenter.interfaceTable\""
par TrackingSimulation.monitoringCenter.udp icmpModule "\"^.ipv4.icmp\""
par TrackingSimulation.monitoringCenter.udp icmpv6Module "\"^.ipv6.icmpv6\""
par TrackingSimulation.monitoringCenter.udp checksumMode "\"declared\""
attr enum disabled,declared,computed
par TrackingSimulation.monitoringCenter.udp defaultMulticastLoop true
scalar TrackingSimulation.monitoringCenter.udp packetReceived:count 0
attr interpolationmode none
attr recordingmode count
attr source packetReceived
attr title "packets received, count"
scalar TrackingSimulation.monitoringCenter.udp packetReceived:sum(packetBytes) 0
attr interpolationmode none
attr recordingmode sum(packetBytes)
attr source packetReceived
attr title "packets received, sum(packetBytes)"
scalar TrackingSimulation.monitoringCenter.udp packetSent:count 0
attr interpolationmode none
attr recordingmode count
attr source packetSent
attr title "packets sent, count"
scalar TrackingSimulation.monitoringCenter.udp packetSent:sum(packetBytes) 0
attr interpolationmode none
attr recordingmode sum(packetBytes)
attr source packetSent
attr title "packets sent, sum(packetBytes)"
scalar TrackingSimulation.monitoringCenter.udp passedUpPk:count 0
attr interpolationmode none
attr recordingmode count
attr source packetSentToUpper
attr title "packets passed up, count"
scalar TrackingSimulation.monitoringCenter.udp droppedPkWrongPort:count 0
attr interpolationmode none
attr recordingmode count
attr source packetDropReasonIsNoPortFound(packetDropped)
attr title "packets dropped (wrong port), count"
scalar TrackingSimulation.monitoringCenter.udp droppedPkBadChecksum:count 0
attr interpolationmode none
attr recordingmode count
attr source packetDropReasonIsIncorrectlyReceived(packetDropped)
attr title "packets dropped (checksum error), count"
par TrackingSimulation.monitoringCenter.tcp typename "\"inet.transportlayer.tcp.Tcp\""
par TrackingSimulation.monitoringCenter.tcp displayStringTextFormat "\"\""
attr mutable ""
par TrackingSimulation.monitoringCenter.tcp checksumMode "\"declared\""
attr enum declared,computed
par TrackingSimulation.monitoringCenter.tcp advertisedWindow 7504
par TrackingSimulation.monitoringCenter.tcp delayedAcksEnabled false
par TrackingSimulation.monitoringCenter.tcp nagleEnabled true
par TrackingSimulation.monitoringCenter.tcp limitedTransmitEnabled false
par TrackingSimulation.monitoringCenter.tcp increasedIWEnabled false
par TrackingSimulation.monitoringCenter.tcp sackSupport false
par TrackingSimulation.monitoringCenter.tcp windowScalingSupport false
par TrackingSimulation.monitoringCenter.tcp windowScalingFactor -1
par TrackingSimulation.monitoringCenter.tcp timestampSupport false
par TrackingSimulation.monitoringCenter.tcp mss 536
par TrackingSimulation.monitoringCenter.tcp msl 120s
attr unit s
par TrackingSimulation.monitoringCenter.tcp tcpAlgorithmClass "\"TcpReno\""
attr examples TcpVegas,TcpWestwood,DcTcp,TcpNewReno,TcpReno,TcpTahoe,TcpNoCongestionControl
par TrackingSimulation.monitoringCenter.tcp dupthresh 3
par TrackingSimulation.monitoringCenter.tcp initialSsthresh 4294967295
par TrackingSimulation.monitoringCenter.tcp stopOperationExtraTime 0s
attr unit s
par TrackingSimulation.monitoringCenter.tcp stopOperationTimeout 2s
attr unit s
par TrackingSimulation.monitoringCenter.tcp ecnWillingness false
par TrackingSimulation.monitoringCenter.tcp dctcpGamma 0.0625
par TrackingSimulation.monitoringCenter.tn typename "\"inet.common.MessageDispatcher\""
par TrackingSimulation.monitoringCenter.tn displayStringTextFormat "\"processed %p pk (%l)\""
attr mutable ""
par TrackingSimulation.monitoringCenter.tn interfaceTableModule "\"TrackingSimulation.monitoringCenter.interfaceTable\""
par TrackingSimulation.monitoringCenter.tn forwardServiceRegistration true
par TrackingSimulation.monitoringCenter.tn forwardProtocolRegistration true
par TrackingSimulation.monitoringCenter.tn interfaceMapping {}
par TrackingSimulation.monitoringCenter.tn serviceMapping {}
par TrackingSimulation.monitoringCenter.tn protocolMapping {}
par TrackingSimulation.monitoringCenter.app[0] typename "\"ned.MonitoringCenterApp\""
par TrackingSimulation.monitoringCenter.app[0] displayStringTextFormat "\"\""
attr mutable ""
par TrackingSimulation.monitoringCenter.app[0] interfaceTableModule "\"TrackingSimulation.monitoringCenter.interfaceTable\""
par TrackingSimulation.monitoringCenter.app[0] startTime 0s
attr unit s
par TrackingSimulation.monitoringCenter.app[0] stopTime -1s
attr unit s
par TrackingSimulation.monitoringCenter.app[0] localPort 20000
par TrackingSimulation.monitoringCenter.app[0] receiveBroadcast false
par TrackingSimulation.monitoringCenter.app[0] multicastGroup "\"\""
par TrackingSimulation.monitoringCenter.app[0] multicastSources "\"\""
par TrackingSimulation.monitoringCenter.app[0] stopOperationExtraTime -1s
attr unit s
par TrackingSimulation.monitoringCenter.app[0] stopOperationTimeout 2s
attr unit s
scalar TrackingSimulation.monitoringCenter.app[0] packetReceived:count 0
attr interpolationmode none
attr recordingmode count
attr source packetReceived
attr title "packets received, count"
scalar TrackingSimulation.monitoringCenter.app[0] packetReceived:sum(packetBytes) 0
attr interpolationmode none
attr recordingmode sum(packetBytes)
attr source packetReceived
attr title "packets received, sum(packetBytes)"
statistic TrackingSimulation.monitoringCenter.app[0] endToEndDelay:histogram
field count 0
field mean nan
field stddev nan
field min nan
field max nan
field sum 0
field sqrsum 0
attr interpolationmode none
attr recordingmode histogram
attr source dataAge(packetReceived)
attr title "end-to-end delay"
attr unit s
bin	-inf	0
bin	0	0
bin	1	0
par TrackingSimulation.monitoringCenter.at typename "\"inet.common.MessageDispatcher\""
par TrackingSimulation.monitoringCenter.at displayStringTextFormat "\"processed %p pk (%l)\""
attr mutable ""
par TrackingSimulation.monitoringCenter.at interfaceTableModule "\"TrackingSimulation.monitoringCenter.interfaceTable\""
par TrackingSimulation.monitoringCenter.at forwardServiceRegistration true
par TrackingSimulation.monitoringCenter.at forwardProtocolRegistration true
par TrackingSimulation.monitoringCenter.at interfaceMapping {}
par TrackingSimulation.monitoringCenter.at serviceMapping {}
par TrackingSimulation.monitoringCenter.at protocolMapping {}
par TrackingSimulation.monitoringCenter typename "\"inet.node.inet.WirelessHost\""
par TrackingSimulation.monitoringCenter displayStringTextFormat "\"\""
attr mutable ""
par TrackingSimulation.monitoringCenter hasStatus false
par TrackingSimulation.monitoringCenter hasEnvironment false
par TrackingSimulation.monitoringCenter osgModel "\"\""
par TrackingSimulation.monitoringCenter osgModelColor "\"\""
par TrackingSimulation.monitoringCenter canvasImage "\"\""
par TrackingSimulation.monitoringCenter canvasImageColor "\"\""
par TrackingSimulation.monitoringCenter recordPcap false
par TrackingSimulation.monitoringCenter numPcapRecorders 0
par TrackingSimulation.monitoringCenter numLoInterfaces 1
par TrackingSimulation.monitoringCenter numWlanInterfaces 1
par TrackingSimulation.monitoringCenter numEthInterfaces 0
par TrackingSimulation.monitoringCenter numPppInterfaces 0
par TrackingSimulation.monitoringCenter numTunInterfaces 0
par TrackingSimulation.monitoringCenter numVirtInterfaces 0
par TrackingSimulation.monitoringCenter fcsMode "\"declared\""
attr enum declared,computed
par TrackingSimulation.monitoringCenter hasIpv4 true
par TrackingSimulation.monitoringCenter hasIpv6 false
par TrackingSimulation.monitoringCenter hasGn false
par TrackingSimulation.monitoringCenter forwarding false
par TrackingSimulation.monitoringCenter multicastForwarding false
par TrackingSimulation.monitoringCenter hasUdp true
par TrackingSimulation.monitoringCenter hasTcp true
par TrackingSimulation.monitoringCenter hasSctp false
par TrackingSimulation.monitoringCenter numApps 1
par TrackingSimulation typename "\"ned.TrackingSimulation\""
par TrackingSimulation numSensors 5
par TrackingSimulation numTargets 10

